32 
charge = 0 
 Al 
  0.9999950  0.9997042  0.9994827

 Al 
  0.9998354  0.2501200  0.2501250

 Al 
  0.2499827  0.0003886  0.2507512

 Al 
  0.2499282  0.2498701  0.0002785

 Al 
  0.4998292  0.0001411  0.9999715

 Al 
  0.5002116  0.2500866  0.2501349

 Al 
  0.7500408  0.0007475  0.2500879

 Al 
  0.7495532  0.2498094  0.0005470

 Al 
  0.9996411  0.5000879  0.9992711

 Al 
  0.9996807  0.7501337  0.2500322

 Al 
  0.2499245  0.5004876  0.2492810

 Al 
  0.2495768  0.7500804  0.9997352

 Al 
  0.0005235  0.9999257  0.5006868

 Al 
  0.0003713  0.2500012  0.7499567

 Al 
  0.2498626  0.0000433  0.7503527

 Al 
  0.2502042  0.2502599  0.4997909

 Al 
  0.9996089  0.4995768  0.5002945

 Al 
  0.9994938  0.7497933  0.7499851

 Al 
  0.2499604  0.5000433  0.7503205

 Al 
  0.2501918  0.7502574  0.4993490

 Al 
  0.4995916  0.4992463  0.9995013

 Al 
  0.5001188  0.7494369  0.2500705

 Al 
  0.7501064  0.4996745  0.2498812

 Al 
  0.7510594  0.7493218  0.0005322

 Al 
  0.5002265  0.0001200  0.4999975

 Al 
  0.4997092  0.2506893  0.7500446

 Al 
  0.7498849  0.0002772  0.7497958

 Al 
  0.7504072  0.2493589  0.5004888

 Al 
  0.5001497  0.4998725  0.5002797

 Al 
  0.4999604  0.7507698  0.7495631

 Al 
  0.7501460  0.4998639  0.7500780

 Al 
  0.7502228  0.7498107  0.4993305

