32 
charge = 0 
 Al 
  0.9999777  0.9988218  0.9979333

 Al 
  0.9993441  0.2504789  0.2505025

 Al 
  0.2499332  0.0015531  0.2529937

 Al 
  0.2497154  0.2494827  0.0011113

 Al 
  0.4993156  0.0005656  0.9998861

 Al 
  0.5008428  0.2503465  0.2505408

 Al 
  0.7501671  0.0029838  0.2503527

 Al 
  0.7482229  0.2492377  0.0021769

 Al 
  0.9985669  0.5003453  0.9970917

 Al 
  0.9987265  0.7505334  0.2501312

 Al 
  0.2496956  0.5019454  0.2471338

 Al 
  0.2483095  0.7503230  0.9989394

 Al 
  0.0020890  0.9997055  0.5027400

 Al 
  0.0014826  0.2500050  0.7498292

 Al 
  0.2494555  0.0001733  0.7514046

 Al 
  0.2508118  0.2510396  0.4991659

 Al 
  0.9984382  0.4983107  0.5011757

 Al 
  0.9979778  0.7491770  0.7499406

 Al 
  0.2498441  0.5001757  0.7512772

 Al 
  0.2507661  0.7510222  0.4974048

 Al 
  0.4983689  0.4969927  0.9980088

 Al 
  0.5004740  0.7477538  0.2502809

 Al 
  0.7504270  0.4986968  0.2495285

 Al 
  0.7542275  0.7472935  0.0021212

 Al 
  0.5009022  0.0004789  0.4999913

 Al 
  0.4988367  0.2527462  0.7501782

 Al 
  0.7495433  0.0011051  0.7491919

 Al 
  0.7516274  0.2474432  0.5019492

 Al 
  0.5005953  0.4994926  0.5011163

 Al 
  0.4998428  0.7530704  0.7482600

 Al 
  0.7505829  0.4994542  0.7503106

 Al 
  0.7508923  0.7492451  0.4973293

