32 
charge = 0 
 Al 
  0.9996906  0.9956252  0.9920140

 Al 
  0.9974927  0.2518068  0.2520346

 Al 
  0.2497686  0.0061061  0.2614821

 Al 
  0.2487674  0.2479271  0.0044428

 Al 
  0.4973516  0.0021311  0.9996547

 Al 
  0.5030840  0.2515544  0.2522808

 Al 
  0.7508403  0.0114079  0.2514121

 Al 
  0.7433184  0.2469915  0.0081865

 Al 
  0.9945040  0.5009492  0.9887666

 Al 
  0.9951673  0.7520222  0.2506559

 Al 
  0.2486869  0.5074241  0.2389127

 Al 
  0.2434558  0.7513650  0.9957985

 Al 
  0.0080590  0.9990087  0.5106826

 Al 
  0.0057114  0.2500545  0.7495062

 Al 
  0.2480397  0.0008267  0.7553822

 Al 
  0.2531100  0.2543067  0.4967613

 Al 
  0.9939805  0.4934409  0.5044391

 Al 
  0.9920326  0.7467675  0.7494827

 Al 
  0.2493404  0.5008242  0.7548253

 Al 
  0.2530197  0.7537511  0.4899634

 Al 
  0.4936612  0.4885736  0.9922145

 Al 
  0.5019244  0.7413061  0.2508514

 Al 
  0.7517846  0.4947663  0.2482352

 Al 
  0.7660202  0.7395748  0.0081617

 Al 
  0.5034231  0.0019702  0.4999233

 Al 
  0.4953294  0.2603955  0.7506906

 Al 
  0.7483540  0.0042362  0.7472155

 Al 
  0.7565541  0.2401527  0.5076172

 Al 
  0.5022808  0.4980744  0.5042931

 Al 
  0.4994740  0.7617531  0.7433444

 Al 
  0.7521694  0.4978095  0.7511881

 Al 
  0.7536038  0.7470967  0.4895810

