32 
charge = 0 
 Al 
  0.9995780  0.9951834  0.9910846

 Al 
  0.9972241  0.2520148  0.2522932

 Al 
  0.2497438  0.0068660  0.2627902

 Al 
  0.2485483  0.2476486  0.0050257

 Al 
  0.4970410  0.0023427  0.9996522

 Al 
  0.5033835  0.2518143  0.2526249

 Al 
  0.7509987  0.0126900  0.2515927

 Al 
  0.7426006  0.2466177  0.0090602

 Al 
  0.9939025  0.5008923  0.9874573

 Al 
  0.9946612  0.7522610  0.2507945

 Al 
  0.2484704  0.5082657  0.2376046

 Al 
  0.2426922  0.7515655  0.9952762

 Al 
  0.0090082  0.9989283  0.5119734

 Al 
  0.0063895  0.2500693  0.7495112

 Al 
  0.2478590  0.0009777  0.7559972

 Al 
  0.2534677  0.2549218  0.4963838

 Al 
  0.9932924  0.4926662  0.5049230

 Al 
  0.9910537  0.7463715  0.7493020

 Al 
  0.2492290  0.5009839  0.7553314

 Al 
  0.2533835  0.7541124  0.4887902

 Al 
  0.4929211  0.4873162  0.9912925

 Al 
  0.5022004  0.7402752  0.2508502

 Al 
  0.7520259  0.4940845  0.2480558

 Al 
  0.7677541  0.7383768  0.0091097

 Al 
  0.5038117  0.0022499  0.4998960

 Al 
  0.4947317  0.2615304  0.7507524

 Al 
  0.7481882  0.0047201  0.7470113

 Al 
  0.7574043  0.2390142  0.5085404

 Al 
  0.5025506  0.4978627  0.5047894

 Al 
  0.4994431  0.7630984  0.7425833

 Al 
  0.7523699  0.4975224  0.7513205

 Al 
  0.7540716  0.7467563  0.4883310

