32 
charge = 0 
 Al 
  0.9998453  0.9965992  0.9939211

 Al 
  0.9980731  0.2513836  0.2515210

 Al 
  0.2498181  0.0046025  0.2587718

 Al 
  0.2491288  0.2484555  0.0033191

 Al 
  0.4979852  0.0016534  0.9996980

 Al 
  0.5024120  0.2511002  0.2516596

 Al 
  0.7505730  0.0087322  0.2510581

 Al 
  0.7448480  0.2477340  0.0063140

 Al 
  0.9957873  0.5008849  0.9914497

 Al 
  0.9962749  0.7515432  0.2504369

 Al 
  0.2490619  0.5056804  0.2415747

 Al 
  0.2450213  0.7509950  0.9968380

 Al 
  0.0061296  0.9991993  0.5080887

 Al 
  0.0043414  0.2500297  0.7495607

 Al 
  0.2484568  0.0005718  0.7541099

 Al 
  0.2523736  0.2531632  0.4975360

 Al 
  0.9954074  0.4950200  0.5034157

 Al 
  0.9939904  0.7475608  0.7497265

 Al 
  0.2495285  0.5005656  0.7537226

 Al 
  0.2522821  0.7529318  0.4923642

 Al 
  0.4951809  0.4912269  0.9940993

 Al 
  0.5014182  0.7433951  0.2507463

 Al 
  0.7513168  0.4960918  0.2486337

 Al 
  0.7623249  0.7420511  0.0062188

 Al 
  0.5026224  0.0014504  0.4999604

 Al 
  0.4965064  0.2579922  0.7505346

 Al 
  0.7487117  0.0032350  0.7477538

 Al 
  0.7548921  0.2424954  0.5057621

 Al 
  0.5017375  0.4985224  0.5032734

 Al 
  0.4995681  0.7589785  0.7449149

 Al 
  0.7516955  0.4983639  0.7509084

 Al 
  0.7526880  0.7477897  0.4921081

