32 
charge = 0 
 Al 
  0.9996374  0.9954000  0.9915474

 Al 
  0.9973566  0.2519108  0.2521645

 Al 
  0.2497562  0.0064848  0.2621405

 Al 
  0.2486622  0.2477885  0.0047324

 Al 
  0.4971957  0.0022400  0.9996510

 Al 
  0.5032375  0.2516806  0.2524491

 Al 
  0.7509170  0.0120539  0.2515024

 Al 
  0.7429558  0.2468059  0.0086283

 Al 
  0.9941995  0.5009294  0.9881095

 Al 
  0.9949099  0.7521410  0.2507227

 Al 
  0.2485818  0.5078474  0.2382580

 Al 
  0.2430734  0.7514640  0.9955373

 Al 
  0.0085342  0.9989679  0.5113274

 Al 
  0.0060504  0.2500606  0.7495050

 Al 
  0.2479469  0.0008997  0.7556915

 Al 
  0.2532894  0.2546099  0.4965720

 Al 
  0.9936340  0.4930523  0.5046842

 Al 
  0.9915437  0.7465695  0.7493985

 Al 
  0.2492859  0.5009009  0.7550814

 Al 
  0.2532016  0.7539367  0.4893755

 Al 
  0.4932899  0.4879387  0.9917516

 Al 
  0.5020605  0.7407901  0.2508552

 Al 
  0.7519046  0.4944273  0.2481437

 Al 
  0.7668977  0.7389733  0.0086369

 Al 
  0.5036186  0.0021076  0.4999109

 Al 
  0.4950324  0.2609685  0.7507227

 Al 
  0.7482699  0.0044787  0.7471078

 Al 
  0.7569761  0.2395810  0.5080788

 Al 
  0.5024157  0.4979679  0.5045419

 Al 
  0.4994567  0.7624288  0.7429620

 Al 
  0.7522734  0.4976672  0.7512549

 Al 
  0.7538364  0.7469259  0.4889560

