32 
charge = 0 
 Al 
  0.9998960  0.9971264  0.9949012

 Al 
  0.9983800  0.2511645  0.2512648

 Al 
  0.2498441  0.0038476  0.2573672

 Al 
  0.2492847  0.2487129  0.0027660

 Al 
  0.4983107  0.0013935  0.9997352

 Al 
  0.5020432  0.2508972  0.2513700

 Al 
  0.7504579  0.0073400  0.2508811

 Al 
  0.7456574  0.2481065  0.0053228

 Al 
  0.9964618  0.5007871  0.9928271

 Al 
  0.9968653  0.7512994  0.2503490

 Al 
  0.2492290  0.5047758  0.2429335

 Al 
  0.2458257  0.7508217  0.9973603

 Al 
  0.0051433  0.9993119  0.5067732

 Al 
  0.0036434  0.2500210  0.7496126

 Al 
  0.2486894  0.0004616  0.7534528

 Al 
  0.2519950  0.2526199  0.4979357

 Al 
  0.9961462  0.4958257  0.5028773

 Al 
  0.9949780  0.7479593  0.7498045

 Al 
  0.2496114  0.5004567  0.7531347

 Al 
  0.2519071  0.7524826  0.4935969

 Al 
  0.4959618  0.4926179  0.9950621

 Al 
  0.5011782  0.7444619  0.2506534

 Al 
  0.7510878  0.4967440  0.2488478

 Al 
  0.7603745  0.7433283  0.0052200

 Al 
  0.5022078  0.0012029  0.4999715

 Al 
  0.4970893  0.2567286  0.7504480

 Al 
  0.7489060  0.0027177  0.7480768

 Al 
  0.7540728  0.2437020  0.5048228

 Al 
  0.5014591  0.4987562  0.5027486

 Al 
  0.4996275  0.7575442  0.7457255

 Al 
  0.7514319  0.4986374  0.7507636

 Al 
  0.7522363  0.7481449  0.4933914

