32 
charge = 0 
 Al 
  0.9995124  0.9949743  0.9906242

 Al 
  0.9970967  0.2521175  0.2524231

 Al 
  0.2497314  0.0072496  0.2634337

 Al 
  0.2484271  0.2475038  0.0053252

 Al 
  0.4968875  0.0024417  0.9996572

 Al 
  0.5035233  0.2519541  0.2528080

 Al 
  0.7510841  0.0133162  0.2516856

 Al 
  0.7422529  0.2464296  0.0094810

 Al 
  0.9936129  0.5008366  0.9868088

 Al 
  0.9944223  0.7523823  0.2508737

 Al 
  0.2483528  0.5086790  0.2369524

 Al 
  0.2423135  0.7516707  0.9950139

 Al 
  0.0094822  0.9988924  0.5126194

 Al 
  0.0067286  0.2500767  0.7495235

 Al 
  0.2477773  0.0010606  0.7563004

 Al 
  0.2536459  0.2552436  0.4961982

 Al 
  0.9929533  0.4922801  0.5051582

 Al 
  0.9905611  0.7461722  0.7491919

 Al 
  0.2491671  0.5010730  0.7555715

 Al 
  0.2535642  0.7542807  0.4882097

 Al 
  0.4925561  0.4867061  0.9908358

 Al 
  0.5023452  0.7397616  0.2508329

 Al 
  0.7521496  0.4937355  0.2479716

 Al 
  0.7685919  0.7377877  0.0095787

 Al 
  0.5040035  0.0023972  0.4998800

 Al 
  0.4944285  0.2620786  0.7507784

 Al 
  0.7481078  0.0049589  0.7469271

 Al 
  0.7578362  0.2384523  0.5090033

 Al 
  0.5026855  0.4977600  0.5050332

 Al 
  0.4994320  0.7637629  0.7422071

 Al 
  0.7524603  0.4973751  0.7513848

 Al 
  0.7543080  0.7465880  0.4877073

