32 
charge = 0 
 Al 
  0.9992612  0.9944025  0.9892592

 Al 
  0.9967427  0.2524306  0.2528155

 Al 
  0.2496881  0.0084340  0.2653284

 Al 
  0.2479989  0.2470422  0.0062670

 Al 
  0.4964284  0.0027004  0.9997017

 Al 
  0.5038996  0.2524281  0.2534120

 Al 
  0.7513786  0.0151453  0.2519727

 Al 
  0.7412566  0.2458517  0.0106765

 Al 
  0.9927961  0.5005371  0.9848832

 Al 
  0.9937726  0.7527561  0.2511571

 Al 
  0.2479506  0.5098993  0.2349933

 Al 
  0.2411848  0.7520135  0.9942119

 Al 
  0.0109054  0.9987946  0.5145785

 Al 
  0.0077608  0.2501040  0.7496077

 Al 
  0.2475670  0.0013452  0.7571952

 Al 
  0.2541743  0.2562843  0.4956500

 Al 
  0.9919633  0.4911254  0.5058339

 Al 
  0.9890649  0.7455708  0.7487736

 Al 
  0.2489493  0.5013885  0.7562348

 Al 
  0.2541075  0.7547250  0.4864772

 Al 
  0.4914781  0.4849500  0.9894869

 Al 
  0.5028192  0.7382110  0.2507029

 Al 
  0.7525308  0.4926476  0.2477427

 Al 
  0.7709767  0.7360514  0.0109772

 Al 
  0.5045740  0.0028736  0.4998193

 Al 
  0.4934978  0.2636478  0.7508267

 Al 
  0.7478739  0.0056618  0.7467638

 Al 
  0.7591728  0.2367878  0.5104054

 Al 
  0.5030989  0.4974667  0.5057596

 Al 
  0.4994183  0.7657307  0.7410883

 Al 
  0.7526744  0.4969110  0.7515692

 Al 
  0.7550356  0.7460819  0.4858299

