32 
charge = 0 
 Al 
  0.9993540  0.9945844  0.9897121

 Al 
  0.9968554  0.2523254  0.2526843

 Al 
  0.2497030  0.0080330  0.2647022

 Al 
  0.2481536  0.2472019  0.0059440

 Al 
  0.4965819  0.0026199  0.9996819

 Al 
  0.5037820  0.2522610  0.2532003

 Al 
  0.7512747  0.0145438  0.2518749

 Al 
  0.7415809  0.2460472  0.0102891

 Al 
  0.9930597  0.5006609  0.9855230

 Al 
  0.9939780  0.7526286  0.2510544

 Al 
  0.2480942  0.5094958  0.2356480

 Al 
  0.2415598  0.7518947  0.9944817

 Al 
  0.0104289  0.9988243  0.5139201

 Al 
  0.0074142  0.2500941  0.7495706

 Al 
  0.2476301  0.0012438  0.7568994

 Al 
  0.2539986  0.2559230  0.4958319

 Al 
  0.9922900  0.4915103  0.5056136

 Al 
  0.9895686  0.7457725  0.7489295

 Al 
  0.2490273  0.5012747  0.7560245

 Al 
  0.2539268  0.7545864  0.4870539

 Al 
  0.4918346  0.4855230  0.9899337

 Al 
  0.5026533  0.7387308  0.2507611

 Al 
  0.7524009  0.4930189  0.2478145

 Al 
  0.7702020  0.7366257  0.0105119

 Al 
  0.5043834  0.0027078  0.4998428

 Al 
  0.4938122  0.2631380  0.7508156

 Al 
  0.7479506  0.0054292  0.7468034

 Al 
  0.7587199  0.2373397  0.5099352

 Al 
  0.5029602  0.4975620  0.5055183

 Al 
  0.4994196  0.7650785  0.7414608

 Al 
  0.7526125  0.4970695  0.7515086

 Al 
  0.7547906  0.7462502  0.4864586

