32 
charge = 0 
 Al 
  0.9987723  0.9937701  0.9874499

 Al 
  0.9963504  0.2528625  0.2533550

 Al 
  0.2496139  0.0101307  0.2677937

 Al 
  0.2472378  0.2463331  0.0076716

 Al 
  0.4958121  0.0029541  0.9998428

 Al 
  0.5042882  0.2532139  0.2543909

 Al 
  0.7518712  0.0174756  0.2523959

 Al 
  0.7400314  0.2450374  0.0121009

 Al 
  0.9918445  0.4997451  0.9823239

 Al 
  0.9930994  0.7533055  0.2516732

 Al 
  0.2472662  0.5114970  0.2323264

 Al 
  0.2396725  0.7525519  0.9930870

 Al 
  0.0128484  0.9986894  0.5172887

 Al 
  0.0091976  0.2501448  0.7498564

 Al 
  0.2473875  0.0018316  0.7583672

 Al 
  0.2548809  0.2579154  0.4949347

 Al 
  0.9906923  0.4895661  0.5066717

 Al 
  0.9869796  0.7447391  0.7479506

 Al 
  0.2485595  0.5019553  0.7569638

 Al 
  0.2548463  0.7551569  0.4841654

 Al 
  0.4900673  0.4827806  0.9877296

 Al 
  0.5035741  0.7360824  0.2503020

 Al 
  0.7530778  0.4910537  0.2475051

 Al 
  0.7738491  0.7337941  0.0128447

 Al 
  0.5053413  0.0036285  0.4997017

 Al 
  0.4921749  0.2655450  0.7507970

 Al 
  0.7475719  0.0065789  0.7467898

 Al 
  0.7610873  0.2345985  0.5123434

 Al 
  0.5036867  0.4971140  0.5067163

 Al 
  0.4994579  0.7683333  0.7395970

 Al 
  0.7528018  0.4962155  0.7517920

 Al 
  0.7560591  0.7453987  0.4832731

