32 
charge = 0 
 Al 
  0.9991572  0.9942292  0.9888075

 Al 
  0.9966351  0.2525370  0.2529491

 Al 
  0.2496708  0.0088424  0.2659497

 Al 
  0.2478318  0.2468764  0.0065987

 Al 
  0.4962749  0.0027746  0.9997277

 Al 
  0.5040097  0.2526051  0.2536347

 Al 
  0.7514900  0.0157393  0.2520729

 Al 
  0.7409398  0.2456537  0.0110514

 Al 
  0.9925424  0.5003861  0.9842434

 Al 
  0.9935808  0.7528872  0.2512697

 Al 
  0.2477984  0.5103015  0.2343349

 Al 
  0.2408086  0.7521385  0.9939384

 Al 
  0.0113831  0.9987662  0.5152418

 Al 
  0.0081110  0.2501126  0.7496535

 Al 
  0.2475100  0.0014529  0.7574897

 Al 
  0.2543500  0.2566630  0.4954705

 Al 
  0.9916415  0.4907393  0.5060504

 Al 
  0.9885563  0.7453666  0.7485991

 Al 
  0.2488639  0.5015135  0.7564353

 Al 
  0.2542906  0.7548512  0.4859017

 Al 
  0.4911230  0.4843881  0.9890426

 Al 
  0.5029924  0.7376887  0.2506299

 Al 
  0.7526632  0.4922665  0.2476759

 Al 
  0.7717279  0.7354822  0.0114425

 Al 
  0.5047646  0.0030481  0.4997946

 Al 
  0.4931773  0.2641441  0.7508304

 Al 
  0.7477984  0.0058933  0.7467415

 Al 
  0.7596344  0.2362383  0.5108806

 Al 
  0.5032412  0.4973739  0.5059985

 Al 
  0.4994221  0.7663816  0.7407170

 Al 
  0.7527251  0.4967464  0.7516274

 Al 
  0.7552856  0.7459123  0.4851988

