32 
charge = 0 
 Al 
  0.9989147  0.9939124  0.9879028

 Al 
  0.9964383  0.2527523  0.2532177

 Al 
  0.2496349  0.0096889  0.2671811

 Al 
  0.2474519  0.2465224  0.0073004

 Al 
  0.4959668  0.0029021  0.9997970

 Al 
  0.5042040  0.2529974  0.2541236

 Al 
  0.7517351  0.0169039  0.2522833

 Al 
  0.7403272  0.2452478  0.0117643

 Al 
  0.9920660  0.4999926  0.9829650

 Al 
  0.9932429  0.7531607  0.2515272

 Al 
  0.2474568  0.5110997  0.2330033

 Al 
  0.2400537  0.7524071  0.9933766

 Al 
  0.0123533  0.9987129  0.5165957

 Al 
  0.0088288  0.2501337  0.7497772

 Al 
  0.2474197  0.0016967  0.7580751

 Al 
  0.2547027  0.2574761  0.4951129

 Al 
  0.9910054  0.4899597  0.5064687

 Al 
  0.9875142  0.7449520  0.7481894

 Al 
  0.2486696  0.5017945  0.7568004

 Al 
  0.2546594  0.7550678  0.4847458

 Al 
  0.4904188  0.4833040  0.9881640

 Al 
  0.5033686  0.7366257  0.2504307

 Al 
  0.7529355  0.4914720  0.2475558

 Al 
  0.7731647  0.7343535  0.0123756

 Al 
  0.5051470  0.0034243  0.4997352

 Al 
  0.4925165  0.2650933  0.7508168

 Al 
  0.7476474  0.0063512  0.7467526

 Al 
  0.7605911  0.2351443  0.5118484

 Al 
  0.5035345  0.4971969  0.5064774

 Al 
  0.4994419  0.7676823  0.7399720

 Al 
  0.7527907  0.4963999  0.7517388

 Al 
  0.7557967  0.7455708  0.4839216

