32 
charge = 0 
 Al 
  0.9994369  0.9947750  0.9901676

 Al 
  0.9969729  0.2522214  0.2525531

 Al 
  0.2497178  0.0076382  0.2640711

 Al 
  0.2482959  0.2473553  0.0056309

 Al 
  0.4967341  0.0025333  0.9996671

 Al 
  0.5036558  0.2521026  0.2529986

 Al 
  0.7511769  0.0139337  0.2517784

 Al 
  0.7419138  0.2462390  0.0098906

 Al 
  0.9933320  0.5007611  0.9861653

 Al 
  0.9941946  0.7525048  0.2509603

 Al 
  0.2482278  0.5090887  0.2363002

 Al 
  0.2419360  0.7517809  0.9947490

 Al 
  0.0099550  0.9988577  0.5132679

 Al 
  0.0070702  0.2500854  0.7495433

 Al 
  0.2477006  0.0011485  0.7566012

 Al 
  0.2538228  0.2555765  0.4960138

 Al 
  0.9926204  0.4918952  0.5053883

 Al 
  0.9900661  0.7459730  0.7490681

 Al 
  0.2491003  0.5011695  0.7558029

 Al 
  0.2537449  0.7544391  0.4876306

 Al 
  0.4921947  0.4861084  0.9903829

 Al 
  0.5024962  0.7392468  0.2508032

 Al 
  0.7522746  0.4933803  0.2478912

 Al 
  0.7694075  0.7372036  0.0100465

 Al 
  0.5041941  0.0025494  0.4998626

 Al 
  0.4941228  0.2626145  0.7507995

 Al 
  0.7480286  0.0051953  0.7468578

 Al 
  0.7582743  0.2378942  0.5094674

 Al 
  0.5028216  0.4976598  0.5052770

 Al 
  0.4994233  0.7644226  0.7418333

 Al 
  0.7525407  0.4972241  0.7514467

 Al 
  0.7545480  0.7464197  0.4870836

