32 
charge = 0 
 Al 
  0.9958802  0.9930078  0.9822608

 Al 
  0.9960485  0.2542547  0.2550022

 Al 
  0.2491919  0.0162541  0.2745235

 Al 
  0.2433159  0.2433976  0.0131652

 Al 
  0.4939768  0.0029145  0.0009962

 Al 
  0.5044490  0.2568957  0.2588065

 Al 
  0.7541693  0.0232810  0.2541137

 Al 
  0.7373175  0.2422974  0.0146800

 Al 
  0.9904064  0.4938481  0.9750693

 Al 
  0.9932231  0.7554985  0.2543748

 Al 
  0.2438592  0.5159027  0.2239703

 Al 
  0.2350552  0.7548352  0.9892518

 Al 
  0.0189595  0.9984939  0.5260618

 Al 
  0.0140265  0.2502760  0.7518056

 Al 
  0.2478912  0.0042411  0.7616257

 Al 
  0.2569316  0.2649621  0.4930498

 Al 
  0.9874833  0.4848646  0.5085318

 Al 
  0.9800777  0.7421068  0.7432429

 Al 
  0.2464705  0.5049267  0.7574873

 Al 
  0.2571667  0.7549750  0.4774095

 Al 
  0.4862358  0.4780852  0.9833560

 Al 
  0.5069341  0.7291693  0.2470039

 Al 
  0.7549973  0.4851195  0.2474246

 Al 
  0.7794948  0.7277449  0.0183023

 Al 
  0.5077137  0.0069279  0.4989815

 Al 
  0.4875984  0.2690399  0.7496436

 Al 
  0.7466425  0.0089983  0.7491671

 Al 
  0.7677429  0.2285667  0.5185597

 Al 
  0.5058363  0.4965274  0.5094104

 Al 
  0.5000532  0.7757982  0.7351332

 Al 
  0.7515606  0.4933951  0.7521583

 Al 
  0.7592916  0.7433964  0.4754294

