32 
charge = 0 
 Al 
  0.9962700  0.9930053  0.9827484

 Al 
  0.9960089  0.2541137  0.2548426

 Al 
  0.2492513  0.0155784  0.2739122

 Al 
  0.2438122  0.2437416  0.0125365

 Al 
  0.4941525  0.0029726  0.0008304

 Al 
  0.5045035  0.2564415  0.2582731

 Al 
  0.7538884  0.0228046  0.2539070

 Al 
  0.7375142  0.2425833  0.0145562

 Al 
  0.9904435  0.4946760  0.9757339

 Al 
  0.9930375  0.7552386  0.2540332

 Al 
  0.2442924  0.5155042  0.2248119

 Al 
  0.2355193  0.7545654  0.9896626

 Al 
  0.0183456  0.9985087  0.5251646

 Al 
  0.0135179  0.2502648  0.7515309

 Al 
  0.2477600  0.0039379  0.7613274

 Al 
  0.2567410  0.2641132  0.4932107

 Al 
  0.9877481  0.4853213  0.5083993

 Al 
  0.9807967  0.7423717  0.7438580

 Al 
  0.2467403  0.5045431  0.7575689

 Al 
  0.2569291  0.7551000  0.4780518

 Al 
  0.4865786  0.4784058  0.9836988

 Al 
  0.5065257  0.7298871  0.2474803

 Al 
  0.7547894  0.4857792  0.2473863

 Al 
  0.7791557  0.7282833  0.0177838

 Al 
  0.5074761  0.0065306  0.4990793

 Al 
  0.4880885  0.2688753  0.7498416

 Al 
  0.7467403  0.0087916  0.7487612

 Al 
  0.7670350  0.2291087  0.5179298

 Al 
  0.5055938  0.4965435  0.5091617

 Al 
  0.4999616  0.7750965  0.7355713

 Al 
  0.7518068  0.4937293  0.7521496

 Al 
  0.7589773  0.7435832  0.4761980

