32 
charge = 0 
 Al 
  0.9954606  0.9930276  0.9817744

 Al 
  0.9961066  0.2543983  0.2551643

 Al 
  0.2491275  0.0169534  0.2751299

 Al 
  0.2427924  0.2430375  0.0138211

 Al 
  0.4938010  0.0028452  0.0011769

 Al 
  0.5043773  0.2573746  0.2593671

 Al 
  0.7544664  0.0237389  0.2543315

 Al 
  0.7371331  0.2420053  0.0147753

 Al 
  0.9903916  0.4929570  0.9744122

 Al 
  0.9934533  0.7557708  0.2547349

 Al 
  0.2433976  0.5162987  0.2231152

 Al 
  0.2345824  0.7551198  0.9888273

 Al 
  0.0195832  0.9984790  0.5269739

 Al 
  0.0145488  0.2502859  0.7521001

 Al 
  0.2480447  0.0045641  0.7619214

 Al 
  0.2571197  0.2658557  0.4928952

 Al 
  0.9872271  0.4844042  0.5086543

 Al 
  0.9793426  0.7418383  0.7425895

 Al 
  0.2461821  0.5053339  0.7573734

 Al 
  0.2574093  0.7548228  0.4767685

 Al 
  0.4858967  0.4777919  0.9830330

 Al 
  0.5073635  0.7284355  0.2464866

 Al 
  0.7552126  0.4844364  0.2474741

 Al 
  0.7797894  0.7272128  0.0188209

 Al 
  0.5079563  0.0073462  0.4988763

 Al 
  0.4870922  0.2691624  0.7494221

 Al 
  0.7465410  0.0091976  0.7496164

 Al 
  0.7684681  0.2280333  0.5192008

 Al 
  0.5060900  0.4965212  0.5096579

 Al 
  0.5001535  0.7764975  0.7346914

 Al 
  0.7512821  0.4930437  0.7521595

 Al 
  0.7596047  0.7432095  0.4746560

