32 
charge = 0 
 Al 
  0.9929669  0.9933555  0.9794602

 Al 
  0.9966685  0.2551111  0.2559663

 Al 
  0.2487278  0.0207044  0.2779875

 Al 
  0.2398458  0.2410549  0.0174051

 Al 
  0.4929607  0.0023192  0.0022907

 Al 
  0.5037944  0.2600898  0.2624660

 Al 
  0.7561321  0.0256559  0.2555789

 Al 
  0.7364475  0.2405104  0.0147592

 Al 
  0.9906552  0.4876900  0.9713999

 Al 
  0.9953084  0.7573313  0.2567460

 Al 
  0.2407294  0.5181315  0.2187788

 Al 
  0.2321469  0.7567051  0.9865786

 Al 
  0.0227192  0.9984097  0.5316024

 Al 
  0.0172739  0.2503057  0.7538204

 Al 
  0.2491498  0.0064180  0.7633174

 Al 
  0.2579687  0.2708975  0.4922355

 Al 
  0.9861504  0.4821543  0.5090800

 Al 
  0.9755408  0.7404770  0.7388421

 Al 
  0.2445324  0.5077038  0.7562621

 Al 
  0.2586865  0.7536805  0.4736733

 Al 
  0.4843287  0.4768489  0.9817979

 Al 
  0.5097743  0.7246126  0.2433394

 Al 
  0.7563635  0.4807745  0.2478813

 Al 
  0.7805208  0.7247364  0.0213232

 Al 
  0.5091840  0.0096988  0.4982464

 Al 
  0.4844203  0.2690547  0.7479976

 Al 
  0.7459866  0.0100502  0.7525024

 Al 
  0.7722489  0.2255965  0.5224308

 Al 
  0.5075058  0.4966870  0.5108287

 Al 
  0.5007698  0.7798302  0.7324823

 Al 
  0.7494146  0.4910660  0.7520581

 Al 
  0.7610762  0.7423395  0.4708641

