32 
charge = 0 
 Al 
  0.9912541  0.9937033  0.9782944

 Al 
  0.9972167  0.2554935  0.2564143

 Al 
  0.2484345  0.0229877  0.2794478

 Al 
  0.2379771  0.2398111  0.0196376

 Al 
  0.4925363  0.0018836  0.0031013

 Al 
  0.5032969  0.2618521  0.2644028

 Al 
  0.7572100  0.0263960  0.2564031

 Al 
  0.7362408  0.2396614  0.0143409

 Al 
  0.9910450  0.4841443  0.9699978

 Al 
  0.9969457  0.7583808  0.2580008

 Al 
  0.2389387  0.5190288  0.2163197

 Al 
  0.2307163  0.7577286  0.9852136

 Al 
  0.0244654  0.9983751  0.5342038

 Al 
  0.0188790  0.2502772  0.7549416

 Al 
  0.2500631  0.0076444  0.7640278

 Al 
  0.2583350  0.2741758  0.4919769

 Al 
  0.9857247  0.4809589  0.5091617

 Al 
  0.9733243  0.7396973  0.7363942

 Al 
  0.2434545  0.5093028  0.7551755

 Al 
  0.2594686  0.7527325  0.4720608

 Al 
  0.4835652  0.4767462  0.9814328

 Al 
  0.5113126  0.7223590  0.2411155

 Al 
  0.7570764  0.4785481  0.2482389

 Al 
  0.7803413  0.7234902  0.0226251

 Al 
  0.5098819  0.0112235  0.4978120

 Al 
  0.4828177  0.2683840  0.7469556

 Al 
  0.7456240  0.0103918  0.7546322

 Al 
  0.7744592  0.2244456  0.5242377

 Al 
  0.5084328  0.4969680  0.5114239

 Al 
  0.5012079  0.7815207  0.7312559

 Al 
  0.7479766  0.4897777  0.7519133

 Al 
  0.7617791  0.7419125  0.4688407

