32 
charge = 0 
 Al 
  0.9918346  0.9935783  0.9786570

 Al 
  0.9970187  0.2553735  0.2562695

 Al 
  0.2485360  0.0222365  0.2789887

 Al 
  0.2385959  0.2402233  0.0189001

 Al 
  0.4926674  0.0020370  0.0028216

 Al 
  0.5034714  0.2612631  0.2637629

 Al 
  0.7568499  0.0261881  0.2561259

 Al 
  0.7362928  0.2399349  0.0145129

 Al 
  0.9909002  0.4853374  0.9704198

 Al 
  0.9963628  0.7580244  0.2575875

 Al 
  0.2395426  0.5187515  0.2171143

 Al 
  0.2311841  0.7573870  0.9856628

 Al 
  0.0239048  0.9983850  0.5333672

 Al 
  0.0183555  0.2502908  0.7545691

 Al 
  0.2497413  0.0072323  0.7638050

 Al 
  0.2582298  0.2730781  0.4920487

 Al 
  0.9858448  0.4813363  0.5091493

 Al 
  0.9740458  0.7399510  0.7372123

 Al 
  0.2438147  0.5087632  0.7555690

 Al 
  0.2592087  0.7530654  0.4725694

 Al 
  0.4838003  0.4767413  0.9815207

 Al 
  0.5108014  0.7230954  0.2418742

 Al 
  0.7568400  0.4792807  0.2481115

 Al 
  0.7804515  0.7238800  0.0222155

 Al 
  0.5096567  0.0107136  0.4979593

 Al 
  0.4833436  0.2686563  0.7473120

 Al 
  0.7457477  0.0102940  0.7538996

 Al 
  0.7737402  0.2247958  0.5236572

 Al 
  0.5081209  0.4968591  0.5112371

 Al 
  0.5010594  0.7809935  0.7316494

 Al 
  0.7484753  0.4902096  0.7519665

 Al 
  0.7615663  0.7420449  0.4694817

