32 
charge = 0 
 Al 
  0.9945362  0.9931130  0.9808153

 Al 
  0.9962749  0.2546879  0.2554886

 Al 
  0.2489827  0.0184149  0.2763168

 Al 
  0.2416687  0.2422751  0.0152047

 Al 
  0.4934533  0.0026694  0.0015816

 Al 
  0.5041891  0.2584055  0.2605576

 Al 
  0.7551000  0.0245904  0.2548017

 Al 
  0.7368101  0.2414088  0.0148706

 Al 
  0.9904312  0.4909967  0.9731375

 Al 
  0.9940547  0.7563586  0.2555059

 Al 
  0.2423977  0.5170672  0.2213777

 Al 
  0.2336171  0.7557250  0.9879486

 Al 
  0.0208455  0.9984506  0.5288290

 Al 
  0.0156242  0.2503007  0.7527462

 Al 
  0.2484196  0.0052621  0.7625019

 Al 
  0.2574823  0.2677714  0.4926031

 Al 
  0.9867507  0.4834847  0.5088647

 Al 
  0.9778365  0.7412937  0.7411749

 Al 
  0.2455596  0.5062212  0.7570380

 Al 
  0.2579105  0.7544416  0.4754950

 Al 
  0.4852371  0.4773043  0.9824551

 Al 
  0.5082830  0.7269244  0.2453344

 Al 
  0.7556594  0.4830095  0.2476041

 Al 
  0.7802349  0.7261782  0.0198505

 Al 
  0.5084476  0.0082409  0.4986424

 Al 
  0.4860440  0.2692688  0.7489122

 Al 
  0.7463294  0.0095725  0.7506485

 Al 
  0.7699631  0.2270011  0.5204977

 Al 
  0.5066296  0.4965460  0.5101431

 Al 
  0.5003787  0.7778773  0.7337991

 Al 
  0.7506274  0.4922925  0.7521410

 Al 
  0.7602210  0.7428457  0.4731090

