32 
charge = 0 
 Al 
  0.9950114  0.9930622  0.9812918

 Al 
  0.9961821  0.2545431  0.2553265

 Al 
  0.2490582  0.0176749  0.2757289

 Al 
  0.2422430  0.2426625  0.0145018

 Al 
  0.4936266  0.0027635  0.0013725

 Al 
  0.5042906  0.2578783  0.2599512

 Al 
  0.7547770  0.0241770  0.2545617

 Al 
  0.7369648  0.2417083  0.0148384

 Al 
  0.9904002  0.4920053  0.9737674

 Al 
  0.9937305  0.7560579  0.2551124

 Al 
  0.2429100  0.5166873  0.2222501

 Al 
  0.2341023  0.7554156  0.9883929

 Al 
  0.0202131  0.9984654  0.5278984

 Al 
  0.0150822  0.2502945  0.7524145

 Al 
  0.2482204  0.0049045  0.7622147

 Al 
  0.2573041  0.2667937  0.4927454

 Al 
  0.9869821  0.4839439  0.5087657

 Al 
  0.9785951  0.7415672  0.7418989

 Al 
  0.2458789  0.5057658  0.7572237

 Al 
  0.2576568  0.7546458  0.4761287

 Al 
  0.4855626  0.4775321  0.9827311

 Al 
  0.5078140  0.7276855  0.2459297

 Al 
  0.7554329  0.4837310  0.2475335

 Al 
  0.7800369  0.7266893  0.0193382

 Al 
  0.5082013  0.0077843  0.4987624

 Al 
  0.4865737  0.2692391  0.7491783

 Al 
  0.7464371  0.0093906  0.7501101

 Al 
  0.7692107  0.2275098  0.5198468

 Al 
  0.5063549  0.4965262  0.5099030

 Al 
  0.5002624  0.7771917  0.7342458

 Al 
  0.7509715  0.4926761  0.7521546

 Al 
  0.7599154  0.7430263  0.4738812

