32 
charge = 0 
 Al 
  0.9924063  0.9934620  0.9790456

 Al 
  0.9968356  0.2552448  0.2561197

 Al 
  0.2486337  0.0214742  0.2785023

 Al 
  0.2392208  0.2406391  0.0181538

 Al 
  0.4928098  0.0021818  0.0025519

 Al 
  0.5036372  0.2606740  0.2631157

 Al 
  0.7564898  0.0259418  0.2558500

 Al 
  0.7363621  0.2402183  0.0146527

 Al 
  0.9907690  0.4865217  0.9708888

 Al 
  0.9958158  0.7576741  0.2571680

 Al 
  0.2401403  0.5184521  0.2179360

 Al 
  0.2316618  0.7570442  0.9861195

 Al 
  0.0233206  0.9983974  0.5324984

 Al 
  0.0178184  0.2503007  0.7541941

 Al 
  0.2494357  0.0068227  0.7635686

 Al 
  0.2581060  0.2719828  0.4921353

 Al 
  0.9859871  0.4817361  0.5091221

 Al 
  0.9747871  0.7402109  0.7380303

 Al 
  0.2441748  0.5082286  0.7559316

 Al 
  0.2589476  0.7533823  0.4731078

 Al 
  0.4840565  0.4767759  0.9816420

 Al 
  0.5102866  0.7238491  0.2426167

 Al 
  0.7566024  0.4800245  0.2479927

 Al 
  0.7805109  0.7242958  0.0217811

 Al 
  0.5094228  0.0102037  0.4981041

 Al 
  0.4838783  0.2688803  0.7476598

 Al 
  0.7458678  0.0101802  0.7531880

 Al 
  0.7730013  0.2251807  0.5230521

 Al 
  0.5078115  0.4967650  0.5110391

 Al 
  0.5009121  0.7804292  0.7320591

 Al 
  0.7489555  0.4906403  0.7520160

 Al 
  0.7613311  0.7421873  0.4701587

