32 
charge = 0 
 Al 
  0.9867457  0.9948022  0.9765952

 Al 
  0.9991634  0.2560975  0.2573870

 Al 
  0.2475929  0.0281273  0.2819935

 Al 
  0.2337347  0.2368856  0.0248131

 Al 
  0.4919051  0.0005148  0.0055208

 Al 
  0.5017945  0.2661947  0.2687738

 Al 
  0.7598757  0.0266410  0.2585305

 Al 
  0.7363373  0.2379907  0.0120390

 Al 
  0.9924162  0.4753205  0.9685251

 Al 
  0.0024355  0.7612581  0.2607383

 Al 
  0.2342656  0.5203332  0.2112940

 Al 
  0.2275036  0.7602891  0.9820677

 Al 
  0.0278526  0.9983454  0.5392740

 Al 
  0.0223826  0.2499356  0.7574675

 Al 
  0.2530543  0.0107767  0.7652220

 Al 
  0.2584761  0.2823833  0.4918890

 Al 
  0.9855267  0.4789169  0.5087607

 Al 
  0.9685709  0.7379944  0.7304527

 Al 
  0.2408557  0.5135501  0.7512178

 Al 
  0.2614462  0.7497587  0.4693419

 Al 
  0.4824229  0.4779627  0.9817942

 Al 
  0.5149386  0.7174088  0.2349686

 Al 
  0.7588053  0.4735075  0.2494146

 Al 
  0.7780939  0.7213430  0.0247958

 Al 
  0.5113076  0.0150141  0.4966586

 Al 
  0.4792510  0.2648520  0.7441463

 Al 
  0.7445931  0.0105564  0.7606727

 Al 
  0.7791248  0.2229456  0.5277882

 Al 
  0.5108806  0.4983714  0.5124264

 Al 
  0.5024132  0.7841097  0.7288402

 Al 
  0.7436798  0.4865081  0.7513700

 Al 
  0.7625514  0.7413036  0.4652195

