32 
charge = 0 
 Al 
  0.9889325  0.9942515  0.9771682

 Al 
  0.9981288  0.2558821  0.2569390

 Al 
  0.2480149  0.0257846  0.2809651

 Al 
  0.2356542  0.2382469  0.0224271

 Al 
  0.4921229  0.0012215  0.0042795

 Al 
  0.5025494  0.2641354  0.2667937

 Al 
  0.7586072  0.0268217  0.2575009

 Al 
  0.7361913  0.2386986  0.0133669

 Al 
  0.9917145  0.4794899  0.9688258

 Al 
  0.9995545  0.7598225  0.2595230

 Al 
  0.2365353  0.5198839  0.2134894

 Al 
  0.2289812  0.7590639  0.9835256

 Al 
  0.0264195  0.9983454  0.5371294

 Al 
  0.0208022  0.2501621  0.7563400

 Al 
  0.2514876  0.0092706  0.7647542

 Al 
  0.2585689  0.2784590  0.4918259

 Al 
  0.9854624  0.4797077  0.5090627

 Al 
  0.9706970  0.7387716  0.7332385

 Al 
  0.2420685  0.5114685  0.7533451

 Al 
  0.2604797  0.7512858  0.4703938

 Al 
  0.4828313  0.4771237  0.9813994

 Al 
  0.5132605  0.7196500  0.2380167

 Al 
  0.7579835  0.4758156  0.2488020

 Al 
  0.7794775  0.7222043  0.0239666

 Al 
  0.5106851  0.0132073  0.4972229

 Al 
  0.4808698  0.2668729  0.7455089

 Al 
  0.7451203  0.0106071  0.7576655

 Al 
  0.7770630  0.2234085  0.5262747

 Al 
  0.5096765  0.4975583  0.5120353

 Al 
  0.5018180  0.7831877  0.7298760

 Al 
  0.7458616  0.4880823  0.7516546

 Al 
  0.7623781  0.7415078  0.4666823

