32 
charge = 0 
 Al 
  0.9895067  0.9941104  0.9773984

 Al 
  0.9978862  0.2558005  0.2568165

 Al 
  0.2481214  0.0251238  0.2806334

 Al 
  0.2362037  0.2386206  0.0217625

 Al 
  0.4922071  0.0013923  0.0039775

 Al 
  0.5027400  0.2635822  0.2662282

 Al 
  0.7582682  0.0267747  0.2572311

 Al 
  0.7361826  0.2389164  0.0136491

 Al 
  0.9915388  0.4806210  0.9690374

 Al 
  0.9988689  0.7594612  0.2591679

 Al 
  0.2371281  0.5197094  0.2141392

 Al 
  0.2293909  0.7587384  0.9839278

 Al 
  0.0259789  0.9983503  0.5364685

 Al 
  0.0203517  0.2502005  0.7560108

 Al 
  0.2511150  0.0088721  0.7645970

 Al 
  0.2585417  0.2774145  0.4918432

 Al 
  0.9854958  0.4799787  0.5091085

 Al 
  0.9713096  0.7389894  0.7340008

 Al 
  0.2424026  0.5109314  0.7538364

 Al 
  0.2602322  0.7516596  0.4707527

 Al 
  0.4829823  0.4769801  0.9813635

 Al 
  0.5127939  0.7202861  0.2387926

 Al 
  0.7577645  0.4764628  0.2486548

 Al 
  0.7797510  0.7224840  0.0236783

 Al 
  0.5104995  0.0127246  0.4973689

 Al 
  0.4813289  0.2673073  0.7458678

 Al 
  0.7452490  0.0105787  0.7569006

 Al 
  0.7764591  0.2236115  0.5258131

 Al 
  0.5093683  0.4973887  0.5119029

 Al 
  0.5016658  0.7828400  0.7301891

 Al 
  0.7464024  0.4884981  0.7517239

 Al 
  0.7622680  0.7415895  0.4671563

