32 
charge = 0 
 Al 
  0.9817781  0.9959049  0.9777870

 Al 
  0.0022462  0.2556816  0.2585268

 Al 
  0.2465880  0.0322150  0.2831209

 Al 
  0.2309997  0.2341431  0.0291137

 Al 
  0.4922083  0.9984122  0.0094438

 Al 
  0.4999059  0.2706599  0.2718875

 Al 
  0.7627593  0.0236473  0.2609982

 Al 
  0.7372581  0.2373781  0.0072237

 Al 
  0.9937961  0.4671167  0.9719024

 Al 
  0.0110366  0.7654151  0.2623014

 Al 
  0.2288426  0.5198047  0.2081048

 Al 
  0.2244208  0.7631244  0.9790208

 Al 
  0.0293859  0.9985347  0.5414410

 Al 
  0.0252166  0.2485694  0.7587100

 Al 
  0.2578981  0.0141936  0.7654374

 Al 
  0.2565702  0.2913197  0.4928989

 Al 
  0.9869672  0.4790778  0.5071135

 Al 
  0.9649745  0.7363534  0.7250285

 Al 
  0.2385525  0.5189421  0.7442577

 Al 
  0.2642988  0.7454606  0.4692391

 Al 
  0.4825516  0.4817299  0.9841419

 Al 
  0.5178481  0.7133632  0.2271323

 Al 
  0.7607594  0.4691736  0.2512264

 Al 
  0.7727835  0.7205002  0.0246300

 Al 
  0.5122172  0.0189916  0.4952651

 Al 
  0.4764913  0.2577669  0.7413395

 Al 
  0.7427838  0.0092594  0.7681513

 Al 
  0.7821345  0.2240483  0.5295839

 Al 
  0.5140686  0.5016843  0.5126046

 Al 
  0.5039429  0.7831234  0.7274962

 Al 
  0.7376974  0.4827323  0.7507710

 Al 
  0.7610155  0.7416724  0.4641008

