32 
charge = 0 
 Al 
  0.9829934  0.9956809  0.9770605

 Al 
  0.0013824  0.2559539  0.2581939

 Al 
  0.2468294  0.0314056  0.2829835

 Al 
  0.2313697  0.2347780  0.0282474

 Al 
  0.4920053  0.9990260  0.0082471

 Al 
  0.5003997  0.2695733  0.2713579

 Al 
  0.7620266  0.0247995  0.2603572

 Al 
  0.7369610  0.2373558  0.0086889

 Al 
  0.9935374  0.4689149  0.9703864

 Al 
  0.0085862  0.7641948  0.2621207

 Al 
  0.2302361  0.5201785  0.2086246

 Al 
  0.2251745  0.7624029  0.9797584

 Al 
  0.0292745  0.9984543  0.5413358

 Al 
  0.0246164  0.2490619  0.7586481

 Al 
  0.2564836  0.0133521  0.7655116

 Al 
  0.2573276  0.2890686  0.4925214

 Al 
  0.9864202  0.4786954  0.5076778

 Al 
  0.9656911  0.7367630  0.7262116

 Al 
  0.2390476  0.5174632  0.7463319

 Al 
  0.2634337  0.7466611  0.4689038

 Al 
  0.4823734  0.4805331  0.9833795

 Al 
  0.5173024  0.7142208  0.2292300

 Al 
  0.7602421  0.4701178  0.2507066

 Al 
  0.7744047  0.7205658  0.0250186

 Al 
  0.5120662  0.0180226  0.4956351

 Al 
  0.4770209  0.2598819  0.7419571

 Al 
  0.7433617  0.0097780  0.7662170

 Al 
  0.7816581  0.2234456  0.5293872

 Al 
  0.5131887  0.5006101  0.5126702

 Al 
  0.5035271  0.7838783  0.7276806

 Al 
  0.7393458  0.4837211  0.7508836

 Al 
  0.7617135  0.7414435  0.4640649

