32 
charge = 0 
 Al 
  0.9834204  0.9955930  0.9768873

 Al 
  0.0010977  0.2560158  0.2580899

 Al 
  0.2469160  0.0310876  0.2829154

 Al 
  0.2315566  0.2350057  0.0279095

 Al 
  0.4919571  0.9992216  0.0078771

 Al 
  0.5005656  0.2691946  0.2711301

 Al 
  0.7617766  0.0251275  0.2601406

 Al 
  0.7368670  0.2373806  0.0091518

 Al 
  0.9934285  0.4695820  0.9699817

 Al 
  0.0077905  0.7638087  0.2620217

 Al 
  0.2307101  0.5202663  0.2088510

 Al 
  0.2254344  0.7621566  0.9800146

 Al 
  0.0291891  0.9984320  0.5412244

 Al 
  0.0243911  0.2492055  0.7585813

 Al 
  0.2560306  0.0130588  0.7655153

 Al 
  0.2575392  0.2882964  0.4924113

 Al 
  0.9862618  0.4786261  0.5078461

 Al 
  0.9659683  0.7369016  0.7266521

 Al 
  0.2392320  0.5169781  0.7469902

 Al 
  0.2631664  0.7470534  0.4688493

 Al 
  0.4823350  0.4801606  0.9831419

 Al 
  0.5170784  0.7145414  0.2299304

 Al 
  0.7600700  0.4704680  0.2505396

 Al 
  0.7749171  0.7206104  0.0250891

 Al 
  0.5120019  0.0176835  0.4957589

 Al 
  0.4772326  0.2605576  0.7421885

 Al 
  0.7435374  0.0099215  0.7655574

 Al 
  0.7814452  0.2232934  0.5292770

 Al 
  0.5129004  0.5002834  0.5126739

 Al 
  0.5033909  0.7840478  0.7277697

 Al 
  0.7398891  0.4840528  0.7509319

 Al 
  0.7618992  0.7413890  0.4641033

