32 
charge = 0 
 Al 
  0.9843065  0.9953963  0.9766410

 Al 
  0.0005346  0.2561012  0.2578882

 Al 
  0.2470992  0.0303784  0.2827397

 Al 
  0.2320244  0.2354871  0.0271583

 Al 
  0.4918915  0.9996015  0.0071667

 Al 
  0.5009047  0.2684050  0.2705955

 Al 
  0.7612655  0.0257017  0.2597013

 Al 
  0.7366913  0.2374759  0.0100391

 Al 
  0.9931810  0.4710237  0.9693184

 Al 
  0.0062249  0.7630612  0.2617606

 Al 
  0.2316791  0.5203851  0.2093894

 Al 
  0.2259752  0.7616517  0.9805492

 Al 
  0.0289441  0.9983949  0.5408804

 Al 
  0.0239010  0.2494617  0.7583783

 Al 
  0.2551483  0.0124486  0.7654906

 Al 
  0.2579055  0.2867098  0.4922157

 Al 
  0.9859821  0.4785704  0.5081543

 Al 
  0.9665858  0.7371900  0.7276051

 Al 
  0.2396354  0.5160128  0.7482625

 Al 
  0.2626541  0.7478306  0.4688320

 Al 
  0.4822930  0.4794577  0.9826939

 Al 
  0.5165710  0.7152431  0.2313388

 Al 
  0.7597235  0.4712230  0.2502104

 Al 
  0.7759009  0.7207403  0.0251485

 Al 
  0.5118484  0.0169769  0.4960076

 Al 
  0.4777115  0.2618633  0.7426872

 Al 
  0.7438654  0.0101703  0.7642134

 Al 
  0.7809353  0.2230620  0.5289850

 Al 
  0.5123274  0.4996720  0.5126528

 Al 
  0.5031174  0.7842693  0.7279924

 Al 
  0.7409707  0.4847260  0.7510420

 Al 
  0.7622024  0.7413111  0.4642617

