32 
charge = 0 
 Al 
  0.9810158  0.9960163  0.9784553

 Al 
  0.0028315  0.2554218  0.2587743

 Al 
  0.2464482  0.0326395  0.2831679

 Al 
  0.2309180  0.2337508  0.0295666

 Al 
  0.4923927  0.9979729  0.0103275

 Al 
  0.4995780  0.2713504  0.2721128

 Al 
  0.7632444  0.0227315  0.2614215

 Al 
  0.7374697  0.2374759  0.0061754

 Al 
  0.9939075  0.4660772  0.9731746

 Al 
  0.0127345  0.7662999  0.2623224

 Al 
  0.2279330  0.5194631  0.2078882

 Al 
  0.2239307  0.7635971  0.9785469

 Al 
  0.0293426  0.9986016  0.5413210

 Al 
  0.0255631  0.2481857  0.7586357

 Al 
  0.2588944  0.0147233  0.7653346

 Al 
  0.2559651  0.2927862  0.4931897

 Al 
  0.9873905  0.4794899  0.5066804

 Al 
  0.9645847  0.7360836  0.7243503

 Al 
  0.2382704  0.5199631  0.7427801

 Al 
  0.2649423  0.7446339  0.4696079

 Al 
  0.4827174  0.4825974  0.9846852

 Al 
  0.5181031  0.7128719  0.2257240

 Al 
  0.7611108  0.4686204  0.2515890

 Al 
  0.7716301  0.7205089  0.0242191

 Al 
  0.5122840  0.0196030  0.4950151

 Al 
  0.4762264  0.2562782  0.7409918

 Al 
  0.7423457  0.0088350  0.7694099

 Al 
  0.7823177  0.2245718  0.5296074

 Al 
  0.5146750  0.5024850  0.5125130

 Al 
  0.5042288  0.7824105  0.7274392

 Al 
  0.7365737  0.4820690  0.7507289

 Al 
  0.7604302  0.7418841  0.4642419

