32 
charge = 0 
 Al 
  0.9821729  0.9958368  0.9775098

 Al 
  0.0019566  0.2557868  0.2584117

 Al 
  0.2466648  0.0319687  0.2830850

 Al 
  0.2310900  0.2343473  0.0288488

 Al 
  0.4921303  0.9986214  0.0090293

 Al 
  0.5000693  0.2703047  0.2717365

 Al 
  0.7625167  0.0240607  0.2607854

 Al 
  0.7371566  0.2373546  0.0077249

 Al 
  0.9937218  0.4676835  0.9713467

 Al 
  0.0102087  0.7649955  0.2622605

 Al 
  0.2293030  0.5199483  0.2082521

 Al 
  0.2246683  0.7628855  0.9792622

 Al 
  0.0293735  0.9985063  0.5414447

 Al 
  0.0250272  0.2487451  0.7587124

 Al 
  0.2574167  0.0139201  0.7654720

 Al 
  0.2568425  0.2905784  0.4927652

 Al 
  0.9867729  0.4789206  0.5073115

 Al 
  0.9651948  0.7364883  0.7254010

 Al 
  0.2387085  0.5184434  0.7449668

 Al 
  0.2639981  0.7458653  0.4690981

 Al 
  0.4824823  0.4813178  0.9838807

 Al 
  0.5176872  0.7136318  0.2278315

 Al 
  0.7605861  0.4694718  0.2510507

 Al 
  0.7733380  0.7205114  0.0247896

 Al 
  0.5121739  0.0186761  0.4953888

 Al 
  0.4766497  0.2584872  0.7415326

 Al 
  0.7429867  0.0094463  0.7675127

 Al 
  0.7820021  0.2238231  0.5295406

 Al 
  0.5137716  0.5013106  0.5126355

 Al 
  0.5038030  0.7834167  0.7275444

 Al 
  0.7382518  0.4830615  0.7508019

 Al 
  0.7612717  0.7415858  0.4640649

