32 
charge = 0 
 Al 
  0.9792795  0.9961512  0.9808599

 Al 
  0.0043166  0.2544428  0.2595230

 Al 
  0.2462081  0.0332818  0.2831642

 Al 
  0.2313598  0.2328585  0.0302312

 Al 
  0.4930325  0.9967390  0.0129424

 Al 
  0.4987327  0.2729964  0.2722105

 Al 
  0.7644782  0.0198666  0.2624907

 Al 
  0.7380253  0.2380476  0.0032932

 Al 
  0.9939298  0.4640080  0.9773316

 Al 
  0.0172430  0.7688543  0.2620130

 Al 
  0.2257079  0.5182627  0.2078103

 Al 
  0.2227068  0.7647703  0.9773873

 Al 
  0.0288030  0.9988033  0.5403272

 Al 
  0.0262623  0.2470398  0.7580417

 Al 
  0.2615910  0.0159151  0.7648805

 Al 
  0.2540914  0.2963999  0.4940411

 Al 
  0.9886379  0.4811593  0.5053648

 Al 
  0.9638904  0.7354030  0.7230422

 Al 
  0.2377184  0.5227167  0.7387159

 Al 
  0.2668606  0.7424484  0.4710547

 Al 
  0.4832793  0.4850045  0.9861207

 Al 
  0.5183048  0.7119103  0.2221425

 Al 
  0.7620464  0.4674954  0.2525692

 Al 
  0.7684793  0.7206970  0.0225806

 Al 
  0.5123410  0.0210175  0.4943604

 Al 
  0.4759096  0.2523006  0.7403718

 Al 
  0.7410202  0.0074526  0.7724580

 Al 
  0.7822843  0.2263230  0.5292857

 Al 
  0.5162913  0.5048129  0.5120959

 Al 
  0.5050059  0.7798191  0.7275345

 Al 
  0.7336468  0.4803673  0.7507859

 Al 
  0.7585132  0.7426402  0.4649708

