32 
charge = 0 
 Al 
  0.9778489  0.9960646  0.9844278

 Al 
  0.0057658  0.2529107  0.2604871

 Al 
  0.2462267  0.0332508  0.2830256

 Al 
  0.2328499  0.2320850  0.0300975

 Al 
  0.4939322  0.9952886  0.0162504

 Al 
  0.4978293  0.2745223  0.2715794

 Al 
  0.7657591  0.0161465  0.2635600

 Al 
  0.7385785  0.2391367  0.0000879

 Al 
  0.9935102  0.4627147  0.9828734

 Al 
  0.0220583  0.7719791  0.2611653

 Al 
  0.2236300  0.5165660  0.2084649

 Al 
  0.2214692  0.7659076  0.9762450

 Al 
  0.0276162  0.9990347  0.5383087

 Al 
  0.0267140  0.2456920  0.7569143

 Al 
  0.2645092  0.0168185  0.7641132

 Al 
  0.2517833  0.2999097  0.4950238

 Al 
  0.9900846  0.4838956  0.5036756

 Al 
  0.9635921  0.7347099  0.7223603

 Al 
  0.2374016  0.5257784  0.7342112

 Al 
  0.2692800  0.7401243  0.4732278

 Al 
  0.4839958  0.4876863  0.9875427

 Al 
  0.5177466  0.7113682  0.2185709

 Al 
  0.7630711  0.4667789  0.2536471

 Al 
  0.7650054  0.7211079  0.0199458

 Al 
  0.5122519  0.0222204  0.4936476

 Al 
  0.4761819  0.2481127  0.7401849

 Al 
  0.7393359  0.0055430  0.7752624

 Al 
  0.7814725  0.2287065  0.5284095

 Al 
  0.5180338  0.5075677  0.5113423

 Al 
  0.5059081  0.7759938  0.7280073

 Al 
  0.7306111  0.4786124  0.7511571

 Al 
  0.7559465  0.7437664  0.4661836

