32 
charge = 0 
 Al 
  0.9802918  0.9960955  0.9792844

 Al 
  0.0034231  0.2550901  0.2590503

 Al 
  0.2463306  0.0329699  0.2831852

 Al 
  0.2309787  0.2333795  0.0299168

 Al 
  0.4926167  0.9975051  0.0112977

 Al 
  0.4992451  0.2720212  0.2722340

 Al 
  0.7637320  0.0216883  0.2618472

 Al 
  0.7376887  0.2376467  0.0050691

 Al 
  0.9939632  0.4651589  0.9746659

 Al 
  0.0144919  0.7672566  0.2622618

 Al 
  0.2270346  0.5190436  0.2077756

 Al 
  0.2234431  0.7640674  0.9780803

 Al 
  0.0292015  0.9986758  0.5410438

 Al 
  0.0258712  0.2477588  0.7584674

 Al 
  0.2599376  0.0152245  0.7651886

 Al 
  0.2552770  0.2942379  0.4935102

 Al 
  0.9878583  0.4800406  0.5061965

 Al 
  0.9642592  0.7358138  0.7237587

 Al 
  0.2380229  0.5210274  0.7412183

 Al 
  0.2656527  0.7437812  0.4700968

 Al 
  0.4829192  0.4835194  0.9852495

 Al 
  0.5182639  0.7124412  0.2243020

 Al 
  0.7614747  0.4681266  0.2519677

 Al 
  0.7704161  0.7205572  0.0236746

 Al 
  0.5123249  0.0201884  0.4947602

 Al 
  0.4760383  0.2547300  0.7406985

 Al 
  0.7418581  0.0083412  0.7706475

 Al 
  0.7823920  0.2251943  0.5295443

 Al 
  0.5153037  0.5033600  0.5123806

 Al 
  0.5045270  0.7815170  0.7274355

 Al 
  0.7354228  0.4813982  0.7507203

 Al 
  0.7597421  0.7421452  0.4644708

