32 
charge = 0 
 Al 
  0.9786632  0.9961425  0.9821444

 Al 
  0.0049082  0.2538996  0.2598819

 Al 
  0.2461759  0.0333560  0.2831246

 Al 
  0.2318227  0.2325330  0.0302832

 Al 
  0.4933630  0.9961834  0.0141800

 Al 
  0.4983788  0.2736238  0.2720497

 Al 
  0.7649881  0.0184780  0.2629226

 Al 
  0.7382518  0.2384189  0.0020395

 Al 
  0.9938196  0.4633929  0.9793933

 Al 
  0.0191463  0.7700361  0.2617383

 Al 
  0.2248478  0.5176415  0.2079786

 Al 
  0.2222118  0.7652332  0.9769269

 Al 
  0.0284070  0.9988949  0.5396428

 Al 
  0.0264739  0.2465175  0.7576481

 Al 
  0.2627432  0.0163210  0.7646131

 Al 
  0.2532090  0.2978268  0.4944235

 Al 
  0.9892010  0.4821172  0.5047337

 Al 
  0.9637221  0.7351245  0.7226882

 Al 
  0.2375625  0.5239097  0.7369511

 Al 
  0.2677689  0.7415276  0.4718417

 Al 
  0.4835528  0.4860551  0.9867036

 Al 
  0.5181823  0.7116380  0.2206970

 Al 
  0.7624474  0.4671539  0.2529912

 Al 
  0.7671180  0.7208368  0.0216512

 Al 
  0.5123224  0.0215299  0.4940820

 Al 
  0.4759393  0.2506299  0.7402393

 Al 
  0.7403879  0.0067546  0.7736214

 Al 
  0.7820591  0.2272041  0.5290023

 Al 
  0.5169781  0.5058722  0.5118385

 Al 
  0.5053512  0.7784355  0.7276744

 Al 
  0.7324353  0.4796656  0.7508910

 Al 
  0.7575603  0.7430461  0.4654027

