32 
charge = 0 
 Al 
  0.9768811  0.9957886  0.9890117

 Al 
  0.0070021  0.2508440  0.2616207

 Al 
  0.2466586  0.0324835  0.2827694

 Al 
  0.2353856  0.2314873  0.0290456

 Al 
  0.4950188  0.9937231  0.0201401

 Al 
  0.4968900  0.2758156  0.2702131

 Al 
  0.7669868  0.0118175  0.2645339

 Al 
  0.7390203  0.2406911  0.9968690

 Al 
  0.9926155  0.4622630  0.9893075

 Al 
  0.0267611  0.7755074  0.2598423

 Al 
  0.2219655  0.5145018  0.2099092

 Al 
  0.2203096  0.7668865  0.9751955

 Al 
  0.0258242  0.9992426  0.5353906

 Al 
  0.0268749  0.2443518  0.7554564

 Al 
  0.2673222  0.0172219  0.7630365

 Al 
  0.2493676  0.3029887  0.4959965

 Al 
  0.9915153  0.4876949  0.5016818

 Al 
  0.9636973  0.7340713  0.7224048

 Al 
  0.2373459  0.5289293  0.7297498

 Al 
  0.2720521  0.7379078  0.4758910

 Al 
  0.4847347  0.4903433  0.9886850

 Al 
  0.5163111  0.7113583  0.2154361

 Al 
  0.7641033  0.4665883  0.2547349

 Al 
  0.7615143  0.7216932  0.0163569

 Al 
  0.5120452  0.0230632  0.4929075

 Al 
  0.4771521  0.2442367  0.7405178

 Al 
  0.7374165  0.0031632  0.7775172

 Al 
  0.7798500  0.2315343  0.5270271

 Al 
  0.5197465  0.5104500  0.5102062

 Al 
  0.5069130  0.7711475  0.7288971

 Al 
  0.7277697  0.4769789  0.7519021

 Al 
  0.7529442  0.7452280  0.4677466

