32 
charge = 0 
 Al 
  0.9767561  0.9957193  0.9900005

 Al 
  0.0072051  0.2503824  0.2618546

 Al 
  0.2468046  0.0322484  0.2827063

 Al 
  0.2359920  0.2313957  0.0287288

 Al 
  0.4952465  0.9934162  0.0209507

 Al 
  0.4967056  0.2760297  0.2698666

 Al 
  0.7672095  0.0109314  0.2647035

 Al 
  0.7390847  0.2410388  0.9962675

 Al 
  0.9923865  0.4622729  0.9906131

 Al 
  0.0276273  0.7762190  0.2595404

 Al 
  0.2217130  0.5140698  0.2102854

 Al 
  0.2201030  0.7670462  0.9750074

 Al 
  0.0254109  0.9992760  0.5347359

 Al 
  0.0268675  0.2441104  0.7551557

 Al 
  0.2678271  0.0172244  0.7627902

 Al 
  0.2489184  0.3035073  0.4961722

 Al 
  0.9917727  0.4885538  0.5012660

 Al 
  0.9637642  0.7339600  0.7225038

 Al 
  0.2373682  0.5295295  0.7289354

 Al 
  0.2726152  0.7375155  0.4764393

 Al 
  0.4848696  0.4908297  0.9888520

 Al 
  0.5159250  0.7114277  0.2149151

 Al 
  0.7642951  0.4666217  0.2549403

 Al 
  0.7608584  0.7218232  0.0155574

 Al 
  0.5119945  0.0231734  0.4927627

 Al 
  0.4774306  0.2435622  0.7406465

 Al 
  0.7370303  0.0026546  0.7778687

 Al 
  0.7794428  0.2321172  0.5267041

 Al 
  0.5200621  0.5109945  0.5099364

 Al 
  0.5071172  0.7701104  0.7291223

 Al 
  0.7272660  0.4766917  0.7520902

 Al 
  0.7523328  0.7455460  0.4680808

