32 
charge = 0 
 Al 
  0.9773972  0.9959730  0.9861653

 Al 
  0.0062992  0.2521397  0.2609277

 Al 
  0.2463418  0.0330318  0.2829365

 Al 
  0.2337508  0.2318202  0.0297869

 Al 
  0.4943518  0.9946649  0.0177565

 Al 
  0.4974531  0.2750780  0.2711153

 Al 
  0.7662665  0.0144597  0.2639696

 Al 
  0.7387753  0.2397121  0.9987748

 Al 
  0.9932058  0.4624313  0.9853906

 Al 
  0.0239901  0.7733652  0.2606839

 Al 
  0.2228937  0.5157690  0.2089501

 Al 
  0.2209866  0.7663284  0.9758069

 Al 
  0.0269628  0.9991238  0.5372308

 Al 
  0.0268167  0.2451389  0.7563524

 Al 
  0.2656750  0.0170524  0.7637171

 Al 
  0.2508019  0.3012215  0.4954260

 Al 
  0.9906762  0.4853015  0.5029046

 Al 
  0.9635872  0.7344414  0.7222873

 Al 
  0.2373459  0.5270519  0.7323771

 Al 
  0.2703653  0.7392023  0.4742587

 Al 
  0.4842990  0.4887765  0.9880501

 Al 
  0.5172776  0.7112940  0.2172306

 Al 
  0.7634919  0.4666328  0.2540901

 Al 
  0.7635847  0.7213257  0.0186092

 Al 
  0.5121813  0.0226115  0.4933506

 Al 
  0.4764838  0.2464841  0.7402542

 Al 
  0.7385822  0.0046347  0.7762524

 Al 
  0.7809155  0.2298042  0.5279095

 Al 
  0.5187367  0.5087335  0.5109339

 Al 
  0.5063029  0.7741473  0.7283130

 Al 
  0.7294255  0.4779293  0.7514121

 Al 
  0.7547745  0.7443184  0.4667789

