32 
charge = 0 
 Al 
  0.9764863  0.9953666  0.9949668

 Al 
  0.0079328  0.2479741  0.2629895

 Al 
  0.2478466  0.0307584  0.2823425

 Al 
  0.2392914  0.2311111  0.0267264

 Al 
  0.4963541  0.9920128  0.0249332

 Al 
  0.4958517  0.2768365  0.2678902

 Al 
  0.7681179  0.0066791  0.2653792

 Al 
  0.7392406  0.2428085  0.9936723

 Al 
  0.9910834  0.4627729  0.9967390

 Al 
  0.0313413  0.7795518  0.2579711

 Al 
  0.2209594  0.5119784  0.2125006

 Al 
  0.2192726  0.7676043  0.9742240

 Al 
  0.0231981  0.9993961  0.5313425

 Al 
  0.0266249  0.2431476  0.7537684

 Al 
  0.2698814  0.0168061  0.7614574

 Al 
  0.2470459  0.3054329  0.4968739

 Al 
  0.9927949  0.4930919  0.4992129

 Al 
  0.9642815  0.7335392  0.7233862

 Al 
  0.2376207  0.5321890  0.7255767

 Al 
  0.2752785  0.7359772  0.4790048

 Al 
  0.4854030  0.4928667  0.9893000

 Al 
  0.5136181  0.7121244  0.2130538

 Al 
  0.7650970  0.4671427  0.2558413

 Al 
  0.7579699  0.7224853  0.0113856

 Al 
  0.5117036  0.0233912  0.4921081

 Al 
  0.4791644  0.2409460  0.7415450

 Al 
  0.7352359  0.0001002  0.7790406

 Al 
  0.7771249  0.2349240  0.5249790

 Al 
  0.5214036  0.5133186  0.5084253

 Al 
  0.5080887  0.7649337  0.7304502

 Al 
  0.7252488  0.4755581  0.7531595

 Al 
  0.7494406  0.7471722  0.4697527

