32 
charge = 0 
 Al 
  0.9772016  0.9959160  0.9870873

 Al 
  0.0065479  0.2517252  0.2611554

 Al 
  0.2464272  0.0328771  0.2828845

 Al 
  0.2342607  0.2317002  0.0295765

 Al 
  0.4945708  0.9943493  0.0185387

 Al 
  0.4972650  0.2753379  0.2708406

 Al 
  0.7665140  0.0135884  0.2641651

 Al 
  0.7388657  0.2400252  0.9981276

 Al 
  0.9930263  0.4623410  0.9866875

 Al 
  0.0249356  0.7740755  0.2604166

 Al 
  0.2225583  0.5153544  0.2092396

 Al 
  0.2207527  0.7665252  0.9755965

 Al 
  0.0266026  0.9991659  0.5366430

 Al 
  0.0268502  0.2448678  0.7560579

 Al 
  0.2662418  0.0171353  0.7635006

 Al 
  0.2503143  0.3018415  0.4956227

 Al 
  0.9909646  0.4860650  0.5025036

 Al 
  0.9636082  0.7343127  0.7222972

 Al 
  0.2373360  0.5276855  0.7314786

 Al 
  0.2709235  0.7387555  0.4747958

 Al 
  0.4844476  0.4893124  0.9882815

 Al 
  0.5169893  0.7112915  0.2165982

 Al 
  0.7637011  0.4665945  0.2543092

 Al 
  0.7628818  0.7214432  0.0178877

 Al 
  0.5121393  0.0227811  0.4932008

 Al 
  0.4766794  0.2457032  0.7403210

 Al 
  0.7381949  0.0041570  0.7767066

 Al 
  0.7805888  0.2303747  0.5276311

 Al 
  0.5190820  0.5093151  0.5107062

 Al 
  0.5065046  0.7731721  0.7284912

 Al 
  0.7288525  0.4776001  0.7515606

 Al 
  0.7541706  0.7446117  0.4670932

