32 
charge = 0 
 Al 
  0.9766521  0.9951438  0.9986993

 Al 
  0.0081679  0.2460287  0.2638025

 Al 
  0.2490285  0.0293030  0.2820058

 Al 
  0.2420412  0.2310913  0.0247587

 Al 
  0.4971685  0.9911168  0.0278687

 Al 
  0.4952874  0.2771595  0.2661465

 Al 
  0.7685560  0.0036867  0.2656960

 Al 
  0.7391552  0.2441389  0.9921798

 Al 
  0.9899423  0.4636107  0.0008576

 Al 
  0.0334686  0.7817608  0.2567719

 Al 
  0.2209779  0.5104883  0.2145574

 Al 
  0.2188914  0.7677330  0.9737959

 Al 
  0.0213603  0.9994282  0.5286805

 Al 
  0.0261893  0.2427182  0.7528959

 Al 
  0.2708938  0.0159745  0.7603027

 Al 
  0.2461116  0.3061173  0.4971994

 Al 
  0.9932516  0.4968170  0.4976771

 Al 
  0.9648607  0.7333919  0.7244815

 Al 
  0.2379647  0.5337842  0.7239184

 Al 
  0.2770977  0.7353695  0.4806618

 Al 
  0.4856232  0.4939397  0.9891825

 Al 
  0.5114623  0.7130588  0.2125167

 Al 
  0.7654906  0.4679484  0.2563809

 Al 
  0.7561965  0.7229989  0.0080541

 Al 
  0.5114475  0.0231758  0.4916885

 Al 
  0.4808722  0.2398272  0.7424880

 Al 
  0.7340627  0.9981597  0.7792919

 Al 
  0.7750780  0.2369140  0.5235558

 Al 
  0.5221561  0.5145599  0.5070714

 Al 
  0.5087632  0.7610539  0.7317113

 Al 
  0.7243020  0.4750569  0.7540753

 Al 
  0.7474766  0.7484469  0.4710274

