32 
charge = 0 
 Al 
  0.9768415  0.9950696  0.0004344

 Al 
  0.0081803  0.2450696  0.2641701

 Al 
  0.2497277  0.0285147  0.2818239

 Al 
  0.2434075  0.2311457  0.0236882

 Al 
  0.4975509  0.9907517  0.0292300

 Al 
  0.4950522  0.2772264  0.2652480

 Al 
  0.7686711  0.0023489  0.2657814

 Al 
  0.7390439  0.2447453  0.9916304

 Al 
  0.9893632  0.4641453  0.0026187

 Al 
  0.0342594  0.7826791  0.2562175

 Al 
  0.2211809  0.5098188  0.2156539

 Al 
  0.2187986  0.7676922  0.9736473

 Al 
  0.0204396  0.9994258  0.5274033

 Al 
  0.0258935  0.2426155  0.7525506

 Al 
  0.2711957  0.0154114  0.7596951

 Al 
  0.2458393  0.3061853  0.4972885

 Al 
  0.9933654  0.4986721  0.4969519

 Al 
  0.9651911  0.7333845  0.7251349

 Al 
  0.2381751  0.5343881  0.7234419

 Al 
  0.2778885  0.7352879  0.4813264

 Al 
  0.4856604  0.4942936  0.9889783

 Al 
  0.5103163  0.7136342  0.2125526

 Al 
  0.7655945  0.4684681  0.2565900

 Al 
  0.7554775  0.7232464  0.0064304

 Al 
  0.5113150  0.0229481  0.4915165

 Al 
  0.4818041  0.2395735  0.7430102

 Al 
  0.7335788  0.9972427  0.7792139

 Al 
  0.7740223  0.2378112  0.5228479

 Al 
  0.5224271  0.5149559  0.5063549

 Al 
  0.5090602  0.7592396  0.7324019

 Al 
  0.7240508  0.4749406  0.7545282

 Al 
  0.7466301  0.7490644  0.4716388

