32 
charge = 0 
 Al 
  0.9793723  0.9955732  0.0096196

 Al 
  0.0069192  0.2389708  0.2659720

 Al 
  0.2560814  0.0226437  0.2802349

 Al 
  0.2520086  0.2324835  0.0154473

 Al 
  0.4999678  0.9896738  0.0365922

 Al 
  0.4943555  0.2763551  0.2590181

 Al 
  0.7675994  0.9957032  0.2653272

 Al 
  0.7373484  0.2475137  0.9907703

 Al 
  0.9857915  0.4692354  0.0100453

 Al 
  0.0358509  0.7854525  0.2535271

 Al 
  0.2252500  0.5064564  0.2238466

 Al 
  0.2198022  0.7657604  0.9737303

 Al 
  0.0142604  0.9992154  0.5198678

 Al 
  0.0226325  0.2435275  0.7515927

 Al 
  0.2705720  0.0097310  0.7548946

 Al 
  0.2467403  0.3027164  0.4970039

 Al 
  0.9927813  0.5108212  0.4925610

 Al 
  0.9679360  0.7344537  0.7309502

 Al 
  0.2400054  0.5352978  0.7253898

 Al 
  0.2813153  0.7383620  0.4831852

 Al 
  0.4847013  0.4943716  0.9859116

 Al 
  0.5019578  0.7189211  0.2169657

 Al 
  0.7646057  0.4737092  0.2571098

 Al 
  0.7524875  0.7248973  0.9966326

 Al 
  0.5104190  0.0197465  0.4910153

 Al 
  0.4887468  0.2416650  0.7469717

 Al 
  0.7319724  0.9920536  0.7761287

 Al 
  0.7666081  0.2425189  0.5181612

 Al 
  0.5228145  0.5140216  0.5009009

 Al 
  0.5103423  0.7490533  0.7380377

 Al 
  0.7258007  0.4761398  0.7569873

 Al 
  0.7429533  0.7529553  0.4755990

