32 
charge = 0 
 Al 
  0.9788525  0.9953554  0.0084365

 Al 
  0.0072422  0.2399027  0.2657566

 Al 
  0.2548970  0.0236275  0.2805406

 Al 
  0.2507141  0.2321704  0.0168717

 Al 
  0.4995730  0.9896985  0.0356146

 Al 
  0.4943604  0.2766311  0.2600243

 Al 
  0.7679855  0.9965348  0.2655067

 Al 
  0.7377036  0.2472328  0.9906242

 Al 
  0.9862940  0.4682701  0.0092879

 Al 
  0.0359599  0.7854067  0.2538340

 Al 
  0.2243379  0.5068870  0.2224605

 Al 
  0.2194607  0.7662492  0.9735867

 Al 
  0.0152492  0.9992624  0.5209581

 Al 
  0.0232971  0.2432268  0.7516150

 Al 
  0.2709086  0.0108076  0.7557621

 Al 
  0.2463405  0.3036644  0.4971140

 Al 
  0.9929731  0.5089191  0.4932268

 Al 
  0.9674397  0.7341592  0.7298760

 Al 
  0.2396763  0.5354982  0.7245817

 Al 
  0.2809613  0.7374858  0.4831357

 Al 
  0.4849847  0.4945498  0.9865353

 Al 
  0.5033451  0.7179434  0.2158631

 Al 
  0.7649584  0.4726783  0.2571160

 Al 
  0.7528315  0.7246201  0.9980521

 Al 
  0.5105564  0.0204235  0.4910178

 Al 
  0.4876021  0.2410128  0.7463133

 Al 
  0.7320553  0.9927702  0.7768601

 Al 
  0.7678271  0.2418816  0.5189137

 Al 
  0.5228937  0.5145475  0.5018440

 Al 
  0.5102198  0.7504826  0.7370266

 Al 
  0.7251473  0.4757475  0.7566903

 Al 
  0.7433493  0.7523551  0.4749530

