32 
charge = 0 
 Al 
  0.9779466  0.9950894  0.0058165

 Al 
  0.0077583  0.2417739  0.2652591

 Al 
  0.2527523  0.0255111  0.2810752

 Al 
  0.2480917  0.2316593  0.0195436

 Al 
  0.4988256  0.9899015  0.0334897

 Al 
  0.4944879  0.2770259  0.2619846

 Al 
  0.7685053  0.9983887  0.2657467

 Al 
  0.7383224  0.2465051  0.9906230

 Al 
  0.9873682  0.4665413  0.0073870

 Al 
  0.0358113  0.7848819  0.2545666

 Al 
  0.2228132  0.5078288  0.2198245

 Al 
  0.2189867  0.7670152  0.9734530

 Al 
  0.0171786  0.9993441  0.5232080

 Al 
  0.0244419  0.2427912  0.7517846

 Al 
  0.2713467  0.0127556  0.7573400

 Al 
  0.2458022  0.3051198  0.4972798

 Al 
  0.9932726  0.5051582  0.4945560

 Al 
  0.9665326  0.7337149  0.7279244

 Al 
  0.2390661  0.5355242  0.7234840

 Al 
  0.2800715  0.7361690  0.4828090

 Al 
  0.4854030  0.4947342  0.9876442

 Al 
  0.5060133  0.7161613  0.2140934

 Al 
  0.7654386  0.4708715  0.2570380

 Al 
  0.7536075  0.7241015  0.0009975

 Al 
  0.5108361  0.0215819  0.4911094

 Al 
  0.4853782  0.2400166  0.7450398

 Al 
  0.7323969  0.9942936  0.7780605

 Al 
  0.7701735  0.2405326  0.5203715

 Al 
  0.5229073  0.5151898  0.5036124

 Al 
  0.5098906  0.7534726  0.7351666

 Al 
  0.7242661  0.4751844  0.7559910

 Al 
  0.7443072  0.7511633  0.4737216

