32 
charge = 0 
 Al 
  0.9783761  0.9951958  0.0071680

 Al 
  0.0075219  0.2408383  0.2655190

 Al 
  0.2537869  0.0245842  0.2808203

 Al 
  0.2494072  0.2318945  0.0182367

 Al 
  0.4991943  0.9897740  0.0345787

 Al 
  0.4944050  0.2768539  0.2610131

 Al 
  0.7682862  0.9974296  0.2656465

 Al 
  0.7380303  0.2468962  0.9905735

 Al 
  0.9868212  0.4673729  0.0084043

 Al 
  0.0359475  0.7852148  0.2541805

 Al 
  0.2235236  0.5073437  0.2211190

 Al 
  0.2191884  0.7666675  0.9734951

 Al 
  0.0162220  0.9993057  0.5220719

 Al 
  0.0238998  0.2429793  0.7516781

 Al 
  0.2711697  0.0118175  0.7565764

 Al 
  0.2460262  0.3044664  0.4972081

 Al 
  0.9931390  0.5070306  0.4938914

 Al 
  0.9669719  0.7339129  0.7288661

 Al 
  0.2393619  0.5355725  0.7239419

 Al 
  0.2805468  0.7367544  0.4830132

 Al 
  0.4852186  0.4946735  0.9871157

 Al 
  0.5046978  0.7170227  0.2149027

 Al 
  0.7652356  0.4717341  0.2570925

 Al 
  0.7532016  0.7243552  0.9995099

 Al 
  0.5106963  0.0210373  0.4910499

 Al 
  0.4864772  0.2404572  0.7456673

 Al 
  0.7321964  0.9935176  0.7775061

 Al 
  0.7690164  0.2412207  0.5196500

 Al 
  0.5229246  0.5149374  0.5027474

 Al 
  0.5100688  0.7519553  0.7360688

 Al 
  0.7246374  0.4754282  0.7563574

 Al 
  0.7437998  0.7517586  0.4743280

