32 
charge = 0 
 Al 
  0.9781558  0.9951364  0.0065022

 Al 
  0.0076457  0.2413061  0.2653916

 Al 
  0.2532597  0.0250520  0.2809502

 Al 
  0.2487501  0.2317719  0.0188976

 Al 
  0.4990087  0.9898309  0.0340404

 Al 
  0.4944409  0.2769467  0.2615007

 Al 
  0.7684050  0.9978999  0.2657010

 Al 
  0.7381800  0.2467068  0.9905859

 Al 
  0.9870922  0.4669484  0.0079130

 Al 
  0.0358955  0.7850651  0.2543686

 Al 
  0.2231560  0.5075825  0.2204656

 Al 
  0.2190795  0.7668494  0.9734691

 Al 
  0.0167021  0.9993255  0.5226375

 Al 
  0.0241795  0.2428778  0.7517264

 Al 
  0.2712687  0.0122964  0.7569650

 Al 
  0.2459024  0.3048116  0.4972477

 Al 
  0.9932107  0.5060925  0.4942231

 Al 
  0.9667492  0.7338077  0.7283872

 Al 
  0.2392122  0.5355638  0.7236894

 Al 
  0.2803178  0.7364437  0.4829216

 Al 
  0.4853176  0.4947131  0.9873868

 Al 
  0.5053611  0.7165833  0.2144795

 Al 
  0.7653458  0.4712923  0.2570690

 Al 
  0.7533996  0.7242278  0.0002500

 Al 
  0.5107656  0.0213183  0.4910759

 Al 
  0.4859240  0.2402220  0.7453517

 Al 
  0.7322892  0.9939025  0.7777944

 Al 
  0.7695993  0.2408804  0.5200126

 Al 
  0.5229221  0.5150809  0.5031842

 Al 
  0.5099834  0.7527078  0.7356109

 Al 
  0.7244344  0.4752970  0.7561779

 Al 
  0.7440461  0.7514603  0.4740236

