32 
charge = 0 
 Al 
  0.9814910  0.9968232  0.0129647

 Al 
  0.0055319  0.2358608  0.2665301

 Al 
  0.2606356  0.0190746  0.2789255

 Al 
  0.2563041  0.2338486  0.0101084

 Al 
  0.5014925  0.9899819  0.0394065

 Al 
  0.4946847  0.2749790  0.2554626

 Al 
  0.7655821  0.9933035  0.2644028

 Al 
  0.7359561  0.2480038  0.9920053

 Al 
  0.9843572  0.4730669  0.0117779

 Al 
  0.0345688  0.7843980  0.2527969

 Al 
  0.2290728  0.5051458  0.2289218

 Al 
  0.2215596  0.7635365  0.9747067

 Al 
  0.0107420  0.9990298  0.5163197

 Al 
  0.0198530  0.2449594  0.7517809

 Al 
  0.2689137  0.0056000  0.7514591

 Al 
  0.2486647  0.2983627  0.4965621

 Al 
  0.9920487  0.5174026  0.4902344

 Al 
  0.9699111  0.7358633  0.7351220

 Al 
  0.2412368  0.5336196  0.7293030

 Al 
  0.2820516  0.7424236  0.4829625

 Al 
  0.4833560  0.4935127  0.9835788

 Al 
  0.4969915  0.7226660  0.2217304

 Al 
  0.7627877  0.4779330  0.2568474

 Al 
  0.7513749  0.7259987  0.9921539

 Al 
  0.5099785  0.0169484  0.4912640

 Al 
  0.4927380  0.2444594  0.7492723

 Al 
  0.7321271  0.9898619  0.7729976

 Al 
  0.7621937  0.2445869  0.5154077

 Al 
  0.5221635  0.5112346  0.4973949

 Al 
  0.5105020  0.7444631  0.7418927

 Al 
  0.7291842  0.4780308  0.7576457

 Al 
  0.7419447  0.7550208  0.4780642

