32 
charge = 0 
 Al 
  0.9821568  0.9973120  0.0136503

 Al 
  0.0050851  0.2350676  0.2666267

 Al 
  0.2619722  0.0180635  0.2784813

 Al 
  0.2574056  0.2342916  0.0085429

 Al 
  0.5019652  0.9901713  0.0399807

 Al 
  0.4948790  0.2744777  0.2544800

 Al 
  0.7648347  0.9927788  0.2640599

 Al 
  0.7355502  0.2479989  0.9925437

 Al 
  0.9840800  0.4742500  0.0120316

 Al 
  0.0339699  0.7837520  0.2526867

 Al 
  0.2302844  0.5048253  0.2303710

 Al 
  0.2222093  0.7627815  0.9751287

 Al 
  0.0097582  0.9989728  0.5154188

 Al 
  0.0189595  0.2454495  0.7518935

 Al 
  0.2683456  0.0043822  0.7503985

 Al 
  0.2493132  0.2968851  0.4964457

 Al 
  0.9918618  0.5191785  0.4895896

 Al 
  0.9705373  0.7363608  0.7363781

 Al 
  0.2415895  0.5328808  0.7306260

 Al 
  0.2821123  0.7437899  0.4828511

 Al 
  0.4828994  0.4932578  0.9829365

 Al 
  0.4956141  0.7237736  0.2232600

 Al 
  0.7621256  0.4792770  0.2567064

 Al 
  0.7510594  0.7263551  0.9910908

 Al 
  0.5098733  0.0160697  0.4914138

 Al 
  0.4938060  0.2453134  0.7498824

 Al 
  0.7322905  0.9893557  0.7719902

 Al 
  0.7609438  0.2451265  0.5145995

 Al 
  0.5218752  0.5102285  0.4963851

 Al 
  0.5104648  0.7433110  0.7430300

 Al 
  0.7304267  0.4786892  0.7577026

 Al 
  0.7417541  0.7555740  0.4788191

