32 
charge = 0 
 Al 
  0.9824947  0.9975731  0.0139424

 Al 
  0.0048587  0.2346975  0.2666625

 Al 
  0.2626318  0.0175660  0.2782474

 Al 
  0.2579254  0.2345181  0.0077657

 Al 
  0.5022041  0.9902802  0.0402220

 Al 
  0.4949928  0.2742117  0.2540010

 Al 
  0.7644386  0.9925437  0.2638780

 Al 
  0.7353522  0.2479716  0.9928382

 Al 
  0.9839686  0.4748490  0.0121219

 Al 
  0.0336369  0.7833771  0.2526459

 Al 
  0.2308982  0.5046755  0.2310851

 Al 
  0.2225533  0.7623917  0.9753626

 Al 
  0.0092755  0.9989456  0.5149931

 Al 
  0.0185016  0.2457032  0.7519566

 Al 
  0.2680536  0.0037795  0.7498626

 Al 
  0.2496448  0.2961202  0.4963937

 Al 
  0.9917776  0.5200337  0.4892753

 Al 
  0.9708591  0.7366207  0.7370056

 Al 
  0.2417615  0.5324749  0.7313017

 Al 
  0.2821160  0.7444904  0.4827979

 Al 
  0.4826642  0.4931377  0.9826296

 Al 
  0.4949458  0.7243255  0.2240359

 Al 
  0.7617754  0.4799614  0.2566259

 Al 
  0.7508997  0.7265395  0.9906069

 Al 
  0.5098250  0.0156255  0.4915017

 Al 
  0.4943184  0.2457354  0.7501733

 Al 
  0.7323895  0.9891268  0.7714779

 Al 
  0.7603324  0.2453851  0.5141961

 Al 
  0.5217155  0.5097025  0.4958888

 Al 
  0.5104314  0.7427677  0.7435944

 Al 
  0.7310851  0.4790332  0.7577063

 Al 
  0.7416737  0.7558388  0.4792028

