32 
charge = 0 
 Al 
  0.9805344  0.9961957  0.0116987

 Al 
  0.0061680  0.2371479  0.2663309

 Al 
  0.2586308  0.0206141  0.2795332

 Al 
  0.2545270  0.2332199  0.0124462

 Al 
  0.5008118  0.9897777  0.0383347

 Al 
  0.4944768  0.2756460  0.2569799

 Al 
  0.7665697  0.9942305  0.2648545

 Al 
  0.7365700  0.2478912  0.9913445

 Al 
  0.9848955  0.4713492  0.0112037

 Al 
  0.0352829  0.7850849  0.2530432

 Al 
  0.2273328  0.5056717  0.2267252

 Al 
  0.2207032  0.7645797  0.9741931

 Al 
  0.0122494  0.9991114  0.5177776

 Al 
  0.0211215  0.2442825  0.7516546

 Al 
  0.2697008  0.0074179  0.7529974

 Al 
  0.2477575  0.3004072  0.4967514

 Al 
  0.9923593  0.5146230  0.4912257

 Al 
  0.9690213  0.7351913  0.7332719

 Al 
  0.2407010  0.5345206  0.7274541

 Al 
  0.2818338  0.7405166  0.4831110

 Al 
  0.4839909  0.4939050  0.9845837

 Al 
  0.4991176  0.7210163  0.2195448

 Al 
  0.7636714  0.4760160  0.2570046

 Al 
  0.7518440  0.7255000  0.9939545

 Al 
  0.5101567  0.0182157  0.4911056

 Al 
  0.4910537  0.2431959  0.7483021

 Al 
  0.7319774  0.9907307  0.7744320

 Al 
  0.7640971  0.2437330  0.5166069

 Al 
  0.5225125  0.5125910  0.4989208

 Al 
  0.5104871  0.7463393  0.7401960

 Al 
  0.7275333  0.4771298  0.7574452

 Al 
  0.7423085  0.7541508  0.4769690

