32 
charge = 0 
 Al 
  0.9811655  0.9965992  0.0125736

 Al 
  0.0057485  0.2362779  0.2664707

 Al 
  0.2599636  0.0195869  0.2791359

 Al 
  0.2557262  0.2336332  0.0108918

 Al 
  0.5012623  0.9899027  0.0390748

 Al 
  0.4946042  0.2752141  0.2559651

 Al 
  0.7659299  0.9935944  0.2645624

 Al 
  0.7361616  0.2479828  0.9917653

 Al 
  0.9845206  0.4724853  0.0116133

 Al 
  0.0348337  0.7846654  0.2528674

 Al 
  0.2284800  0.5053153  0.2281904

 Al 
  0.2212576  0.7638966  0.9745186

 Al 
  0.0112420  0.9990570  0.5167925

 Al 
  0.0202861  0.2447243  0.7517326

 Al 
  0.2691859  0.0062089  0.7519801

 Al 
  0.2483528  0.2990706  0.4966239

 Al 
  0.9921489  0.5164880  0.4905623

 Al 
  0.9696079  0.7356294  0.7344983

 Al 
  0.2410586  0.5339488  0.7286644

 Al 
  0.2819959  0.7417665  0.4830169

 Al 
  0.4835751  0.4936439  0.9839104

 Al 
  0.4976944  0.7221115  0.2209841

 Al 
  0.7630984  0.4772796  0.2569068

 Al 
  0.7515309  0.7258279  0.9927293

 Al 
  0.5100354  0.0173803  0.4912022

 Al 
  0.4921848  0.2440325  0.7489543

 Al 
  0.7320640  0.9901379  0.7734877

 Al 
  0.7628261  0.2443085  0.5158099

 Al 
  0.5222922  0.5117098  0.4979036

 Al 
  0.5105069  0.7450696  0.7413234

 Al 
  0.7286025  0.4777177  0.7575937

 Al 
  0.7420548  0.7547349  0.4776929

