32 
charge = 0 
 Al 
  0.9802299  0.9960163  0.0112185

 Al 
  0.0063673  0.2375959  0.2662504

 Al 
  0.2579761  0.0211264  0.2797201

 Al 
  0.2539095  0.2330231  0.0132122

 Al 
  0.5005940  0.9897332  0.0379288

 Al 
  0.4944297  0.2758428  0.2574897

 Al 
  0.7668593  0.9945733  0.2649869

 Al 
  0.7367705  0.2478207  0.9911675

 Al 
  0.9851022  0.4707997  0.0109574

 Al 
  0.0354673  0.7852359  0.2531484

 Al 
  0.2267833  0.5058586  0.2259962

 Al 
  0.2204507  0.7648990  0.9740545

 Al 
  0.0127543  0.9991387  0.5182862

 Al 
  0.0215212  0.2440758  0.7516262

 Al 
  0.2699408  0.0080120  0.7534899

 Al 
  0.2474791  0.3010334  0.4968170

 Al 
  0.9924670  0.5136775  0.4915598

 Al 
  0.9687379  0.7349884  0.7326729

 Al 
  0.2405240  0.5347619  0.7268885

 Al 
  0.2817286  0.7399324  0.4831469

 Al 
  0.4841852  0.4940312  0.9849215

 Al 
  0.4998317  0.7204779  0.2188580

 Al 
  0.7639325  0.4754096  0.2570417

 Al 
  0.7520011  0.7253428  0.9945980

 Al 
  0.5102198  0.0186191  0.4910710

 Al 
  0.4904794  0.2427912  0.7479704

 Al 
  0.7319551  0.9910450  0.7748824

 Al 
  0.7647307  0.2434372  0.5170016

 Al 
  0.5226066  0.5129932  0.4994258

 Al 
  0.5104636  0.7469977  0.7396416

 Al 
  0.7270482  0.4768576  0.7573499

 Al 
  0.7424521  0.7538538  0.4766175

