32 
charge = 0 
 Al 
  0.9852000  0.9999356  0.0150686

 Al 
  0.0030555  0.2325392  0.2666737

 Al 
  0.2673246  0.0139708  0.2761150

 Al 
  0.2611702  0.2363051  0.0019454

 Al 
  0.5041260  0.9913544  0.0409089

 Al 
  0.4962390  0.2718182  0.2506200

 Al 
  0.7609264  0.9913272  0.2621937

 Al 
  0.7340070  0.2472910  0.9956636

 Al 
  0.9837954  0.4795777  0.0121479

 Al 
  0.0303413  0.7793785  0.2526125

 Al 
  0.2357309  0.5036681  0.2362767

 Al 
  0.2256807  0.7591567  0.9777288

 Al 
  0.0057769  0.9987241  0.5122816

 Al 
  0.0147889  0.2478108  0.7525395

 Al 
  0.2656824  0.9993132  0.7456747

 Al 
  0.2522623  0.2897035  0.4961846

 Al 
  0.9914385  0.5258094  0.4870415

 Al 
  0.9736115  0.7388892  0.7418073

 Al 
  0.2429484  0.5285617  0.7366207

 Al 
  0.2815727  0.7500631  0.4826964

 Al 
  0.4808487  0.4925350  0.9807856

 Al 
  0.4903804  0.7284528  0.2300913

 Al 
  0.7587075  0.4855218  0.2557373

 Al 
  0.7495582  0.7281558  0.9880637

 Al 
  0.5095725  0.0121591  0.4925152

 Al 
  0.4977080  0.2487006  0.7519665

 Al 
  0.7335033  0.9879103  0.7673754

 Al 
  0.7559428  0.2471870  0.5110514

 Al 
  0.5200869  0.5053265  0.4923667

 Al 
  0.5098151  0.7393471  0.7477489

 Al 
  0.7368806  0.4819291  0.7571618

 Al 
  0.7413173  0.7575751  0.4823363

