32 
charge = 0 
 Al 
  0.9861925  0.0008712  0.0149807

 Al 
  0.0024120  0.2321482  0.2665549

 Al 
  0.2687045  0.0128348  0.2751869

 Al 
  0.2619375  0.2369252  0.0000173

 Al 
  0.5048129  0.9917925  0.0405760

 Al 
  0.4968331  0.2708319  0.2495879

 Al 
  0.7595342  0.9911366  0.2614809

 Al 
  0.7336567  0.2468801  0.9968677

 Al 
  0.9840515  0.4812670  0.0119202

 Al 
  0.0288847  0.7775543  0.2526731

 Al 
  0.2374276  0.5033600  0.2379387

 Al 
  0.2269764  0.7579625  0.9788080

 Al 
  0.0046483  0.9986412  0.5115762

 Al 
  0.0134238  0.2485954  0.7527622

 Al 
  0.2648272  0.9978603  0.7442231

 Al 
  0.2531669  0.2872680  0.4962230

 Al 
  0.9914905  0.5274231  0.4863670

 Al 
  0.9747265  0.7397901  0.7434446

 Al 
  0.2432751  0.5268774  0.7384201

 Al 
  0.2811160  0.7519751  0.4829093

 Al 
  0.4802770  0.4925288  0.9804416

 Al 
  0.4891070  0.7298265  0.2321630

 Al 
  0.7574984  0.4875699  0.2552943

 Al 
  0.7490186  0.7288253  0.9877432

 Al 
  0.5095441  0.0109698  0.4930251

 Al 
  0.4986362  0.2495433  0.7523576

 Al 
  0.7340268  0.9877320  0.7659027

 Al 
  0.7545815  0.2477414  0.5099277

 Al 
  0.5193295  0.5037350  0.4913222

 Al 
  0.5094315  0.7384894  0.7490656

 Al 
  0.7391689  0.4830231  0.7567125

 Al 
  0.7412826  0.7580244  0.4835268

