32 
charge = 0 
 Al 
  0.9855329  0.0002475  0.0150673

 Al 
  0.0028377  0.2323833  0.2666415

 Al 
  0.2678098  0.0135785  0.2758143

 Al 
  0.2614536  0.2365155  0.0012858

 Al 
  0.5043587  0.9915004  0.0408334

 Al 
  0.4964309  0.2714952  0.2502611

 Al 
  0.7604636  0.9912492  0.2619610

 Al 
  0.7338795  0.2471610  0.9960584

 Al 
  0.9838622  0.4801470  0.0120836

 Al 
  0.0298661  0.7787857  0.2526298

 Al 
  0.2363051  0.5035617  0.2368484

 Al 
  0.2261064  0.7587545  0.9780778

 Al 
  0.0053908  0.9986968  0.5120291

 Al 
  0.0143310  0.2480744  0.7526137

 Al 
  0.2653940  0.9988157  0.7451809

 Al 
  0.2525704  0.2888916  0.4961895

 Al 
  0.9914447  0.5263811  0.4868063

 Al 
  0.9739778  0.7391874  0.7423630

 Al 
  0.2430647  0.5280110  0.7372358

 Al 
  0.2814353  0.7507153  0.4827484

 Al 
  0.4806495  0.4925189  0.9806470

 Al 
  0.4899275  0.7289218  0.2307980

 Al 
  0.7583053  0.4862086  0.2555963

 Al 
  0.7493812  0.7283748  0.9879189

 Al 
  0.5095589  0.0117544  0.4926773

 Al 
  0.4980372  0.2490000  0.7521150

 Al 
  0.7336728  0.9878348  0.7668791

 Al 
  0.7554713  0.2473776  0.5106740

 Al 
  0.5198431  0.5047894  0.4919992

 Al 
  0.5096963  0.7390364  0.7482043

 Al 
  0.7376405  0.4822954  0.7570256

 Al 
  0.7413012  0.7577372  0.4827323

