32 
charge = 0 
 Al 
  0.9848658  0.9996250  0.0150413

 Al 
  0.0032746  0.2327224  0.2666997

 Al 
  0.2668135  0.0143768  0.2764083

 Al 
  0.2608596  0.2360898  0.0026212

 Al 
  0.5038909  0.9912084  0.0409485

 Al 
  0.4960547  0.2721388  0.2509925

 Al 
  0.7613856  0.9914187  0.2624227

 Al 
  0.7341443  0.2474135  0.9952762

 Al 
  0.9837471  0.4790023  0.0122011

 Al 
  0.0308029  0.7799564  0.2525964

 Al 
  0.2351480  0.5037770  0.2356876

 Al 
  0.2252624  0.7595602  0.9773897

 Al 
  0.0061754  0.9987513  0.5125514

 Al 
  0.0152492  0.2475472  0.7524640

 Al 
  0.2659732  0.9998267  0.7461759

 Al 
  0.2519492  0.2905166  0.4961871

 Al 
  0.9914447  0.5252030  0.4872878

 Al 
  0.9732513  0.7385946  0.7412393

 Al 
  0.2428234  0.5291013  0.7359896

 Al 
  0.2816952  0.7493961  0.4826617

 Al 
  0.4810579  0.4925660  0.9809453

 Al 
  0.4908606  0.7279726  0.2293711

 Al 
  0.7591060  0.4848324  0.2558710

 Al 
  0.7497327  0.7279404  0.9882469

 Al 
  0.5095911  0.0125724  0.4923605

 Al 
  0.4973578  0.2483837  0.7518007

 Al 
  0.7333399  0.9880018  0.7678766

 Al 
  0.7564328  0.2469878  0.5114338

 Al 
  0.5203220  0.5058698  0.4927504

 Al 
  0.5099240  0.7396837  0.7472786

 Al 
  0.7361244  0.4815628  0.7572831

 Al 
  0.7413383  0.7574006  0.4819415

