32 
charge = 0 
 Al 
  0.9845305  0.9993169  0.0149819

 Al 
  0.0034974  0.2329303  0.2667170

 Al 
  0.2662777  0.0147951  0.2766930

 Al 
  0.2605218  0.2358720  0.0033130

 Al 
  0.5036533  0.9910636  0.0409522

 Al 
  0.4958777  0.2724531  0.2513811

 Al 
  0.7618422  0.9915276  0.2626467

 Al 
  0.7342916  0.2475274  0.9948963

 Al 
  0.9837186  0.4784206  0.0122407

 Al 
  0.0312534  0.7805146  0.2525853

 Al 
  0.2345577  0.5038897  0.2350799

 Al 
  0.2248503  0.7599661  0.9770630

 Al 
  0.0065851  0.9987798  0.5128422

 Al 
  0.0157121  0.2472823  0.7523885

 Al 
  0.2662665  0.0003539  0.7466858

 Al 
  0.2516299  0.2913284  0.4961970

 Al 
  0.9914608  0.5245631  0.4875439

 Al 
  0.9728949  0.7383013  0.7406614

 Al 
  0.2426922  0.5296297  0.7353448

 Al 
  0.2818016  0.7487154  0.4826432

 Al 
  0.4812744  0.4926118  0.9811272

 Al 
  0.4913692  0.7274813  0.2286372

 Al 
  0.7595032  0.4841394  0.2559985

 Al 
  0.7499059  0.7277301  0.9884684

 Al 
  0.5096121  0.0129932  0.4922133

 Al 
  0.4969865  0.2480496  0.7516175

 Al 
  0.7331815  0.9881107  0.7683828

 Al 
  0.7569403  0.2467823  0.5118187

 Al 
  0.5205485  0.5064180  0.4931538

 Al 
  0.5100255  0.7400450  0.7467910

 Al 
  0.7353745  0.4811952  0.7573895

 Al 
  0.7413655  0.7572125  0.4815479

