32 
charge = 0 
 Al 
  0.9841926  0.9990124  0.0148928

 Al 
  0.0037214  0.2331654  0.2667281

 Al 
  0.2657183  0.0152270  0.2769702

 Al 
  0.2601567  0.2356505  0.0040208

 Al 
  0.5034144  0.9909225  0.0409188

 Al 
  0.4957081  0.2727625  0.2517833

 Al 
  0.7622939  0.9916526  0.2628657

 Al 
  0.7344488  0.2476313  0.9945250

 Al 
  0.9837100  0.4778340  0.0122655

 Al 
  0.0316890  0.7810542  0.2525778

 Al 
  0.2339587  0.5040072  0.2344550

 Al 
  0.2244456  0.7603745  0.9767474

 Al 
  0.0070058  0.9988070  0.5131516

 Al 
  0.0161774  0.2470162  0.7523130

 Al 
  0.2665635  0.0008948  0.7472031

 Al 
  0.2513056  0.2921402  0.4962143

 Al 
  0.9914880  0.5238887  0.4878100

 Al 
  0.9725434  0.7380105  0.7400723

 Al 
  0.2425523  0.5301445  0.7346889

 Al 
  0.2818945  0.7480249  0.4826395

 Al 
  0.4814972  0.4926699  0.9813301

 Al 
  0.4919051  0.7269801  0.2278897

 Al 
  0.7598968  0.4834427  0.2561197

 Al 
  0.7500767  0.7275222  0.9887295

 Al 
  0.5096381  0.0134201  0.4920734

 Al 
  0.4965942  0.2476994  0.7514158

 Al 
  0.7330293  0.9882357  0.7688939

 Al 
  0.7574662  0.2465682  0.5122073

 Al 
  0.5207663  0.5069687  0.4935733

 Al 
  0.5101171  0.7404336  0.7462898

 Al 
  0.7346307  0.4808289  0.7574823

 Al 
  0.7413989  0.7570120  0.4811544

