32 
charge = 0 
 Al 
  0.9891726  0.0036001  0.0133904

 Al 
  0.0005953  0.2323585  0.2658309

 Al 
  0.2714222  0.0100366  0.2718380

 Al 
  0.2628880  0.2385934  0.9949903

 Al 
  0.5066630  0.9930003  0.0375971

 Al 
  0.4989208  0.2675845  0.2471709

 Al 
  0.7553228  0.9911749  0.2591035

 Al 
  0.7332360  0.2454322  0.0007599

 Al 
  0.9857618  0.4860985  0.0108039

 Al 
  0.0238825  0.7714346  0.2528117

 Al 
  0.2421328  0.5025061  0.2421662

 Al 
  0.2312534  0.7545839  0.9826531

 Al 
  0.0017054  0.9983503  0.5102309

 Al 
  0.0094154  0.2508811  0.7533501

 Al 
  0.2623880  0.9941439  0.7403780

 Al 
  0.2555492  0.2798537  0.4967365

 Al 
  0.9922603  0.5305567  0.4849129

 Al 
  0.9784825  0.7426761  0.7478788

 Al 
  0.2438258  0.5212230  0.7429434

 Al 
  0.2788798  0.7568004  0.4847074

 Al 
  0.4792114  0.4932986  0.9806854

 Al 
  0.4867556  0.7334959  0.2375761

 Al 
  0.7538191  0.4936129  0.2535790

 Al 
  0.7472340  0.7311395  0.9886763

 Al 
  0.5096505  0.0078239  0.4949891

 Al 
  0.5005346  0.2511596  0.7526051

 Al 
  0.7358509  0.9880068  0.7617296

 Al 
  0.7513440  0.2491411  0.5066234

 Al 
  0.5165289  0.4993961  0.4892085

 Al 
  0.5078078  0.7370984  0.7521521

 Al 
  0.7461314  0.4862494  0.7546656

 Al 
  0.7413742  0.7586902  0.4872543

