32 
charge = 0 
 Al 
  0.9878348  0.0024095  0.0143223

 Al 
  0.0013861  0.2320108  0.2662195

 Al 
  0.2704767  0.0111814  0.2734481

 Al 
  0.2627023  0.2378830  0.9971029

 Al 
  0.5058846  0.9924954  0.0392951

 Al 
  0.4979419  0.2690894  0.2481313

 Al 
  0.7571952  0.9910623  0.2602062

 Al 
  0.7333003  0.2460980  0.9989840

 Al 
  0.9848337  0.4839798  0.0113633

 Al 
  0.0262314  0.7742599  0.2527759

 Al 
  0.2400983  0.5028872  0.2404027

 Al 
  0.2292696  0.7560467  0.9808240

 Al 
  0.0029491  0.9984914  0.5107111

 Al 
  0.0111925  0.2498738  0.7531075

 Al 
  0.2634573  0.9956920  0.7419954

 Al 
  0.2545480  0.2831927  0.4964333

 Al 
  0.9918049  0.5294639  0.4854549

 Al 
  0.9767202  0.7413494  0.7459779

 Al 
  0.2436587  0.5238565  0.7410908

 Al 
  0.2800443  0.7548265  0.4836778

 Al 
  0.4795493  0.4928122  0.9803364

 Al 
  0.4875365  0.7319266  0.2353077

 Al 
  0.7554651  0.4909262  0.2544181

 Al 
  0.7480607  0.7300418  0.9879263

 Al 
  0.5095713  0.0091505  0.4940337

 Al 
  0.4998305  0.2506002  0.7526608

 Al 
  0.7349921  0.9877432  0.7635501

 Al 
  0.7526410  0.2485570  0.5080937

 Al 
  0.5178803  0.5012413  0.4899609

 Al 
  0.5086184  0.7375155  0.7509331

 Al 
  0.7430189  0.4848188  0.7557015

 Al 
  0.7413024  0.7585181  0.4855527

