32 
charge = 0 
 Al 
  0.9875056  0.0021063  0.0145005

 Al 
  0.0015866  0.2319873  0.2662999

 Al 
  0.2701747  0.0114908  0.2738181

 Al 
  0.2625984  0.2376974  0.9976598

 Al 
  0.5056792  0.9923593  0.0396243

 Al 
  0.4977093  0.2694495  0.2483986

 Al 
  0.7576630  0.9910561  0.2604710

 Al 
  0.7333474  0.2462613  0.9985508

 Al 
  0.9846431  0.4834451  0.0114895

 Al 
  0.0267858  0.7749406  0.2527585

 Al 
  0.2395785  0.5029801  0.2399361

 Al 
  0.2287956  0.7564217  0.9803982

 Al 
  0.0032746  0.9985224  0.5108571

 Al 
  0.0116368  0.2496213  0.7530419

 Al 
  0.2637270  0.9961029  0.7424224

 Al 
  0.2542844  0.2840119  0.4963764

 Al 
  0.9917195  0.5291174  0.4856158

 Al 
  0.9763056  0.7410301  0.7454878

 Al 
  0.2435981  0.5244827  0.7405896

 Al 
  0.2802918  0.7542906  0.4834798

 Al 
  0.4796693  0.4927256  0.9803104

 Al 
  0.4877964  0.7315220  0.2347074

 Al 
  0.7558735  0.4902579  0.2546074

 Al 
  0.7482587  0.7297869  0.9878211

 Al 
  0.5095589  0.0094995  0.4938159

 Al 
  0.4996238  0.2504220  0.7526348

 Al 
  0.7347904  0.9877122  0.7640117

 Al 
  0.7529986  0.2484023  0.5084587

 Al 
  0.5181897  0.5017227  0.4901960

 Al 
  0.5087978  0.7376677  0.7505903

 Al 
  0.7422467  0.4844612  0.7559292

 Al 
  0.7412925  0.7584439  0.4851406

