32 
charge = 0 
 Al 
  0.9884981  0.0030110  0.0138978

 Al 
  0.0009888  0.2321345  0.2660388

 Al 
  0.2710014  0.0105923  0.2726709

 Al 
  0.2628409  0.2382432  0.9960262

 Al 
  0.5062843  0.9927553  0.0385241

 Al 
  0.4984221  0.2683518  0.2476313

 Al 
  0.7562584  0.9911032  0.2596654

 Al 
  0.7332422  0.2457663  0.9998626

 Al 
  0.9852643  0.4850416  0.0110947

 Al 
  0.0250854  0.7728664  0.2528031

 Al 
  0.2411242  0.5026991  0.2413024

 Al 
  0.2302423  0.7553079  0.9817125

 Al 
  0.0023180  0.9984233  0.5104512

 Al 
  0.0103052  0.2503787  0.7532338

 Al 
  0.2629214  0.9949000  0.7411688

 Al 
  0.2550592  0.2815368  0.4965695

 Al 
  0.9920103  0.5300678  0.4851629

 Al 
  0.9775803  0.7420016  0.7469395

 Al 
  0.2437577  0.5225670  0.7420474

 Al 
  0.2794985  0.7558475  0.4841431

 Al 
  0.4793500  0.4930263  0.9804626

 Al 
  0.4870947  0.7327199  0.2364660

 Al 
  0.7546446  0.4922652  0.2540147

 Al 
  0.7476548  0.7305752  0.9882370

 Al 
  0.5096060  0.0084748  0.4944941

 Al 
  0.5002067  0.2509096  0.7526657

 Al 
  0.7354104  0.9878471  0.7626355

 Al 
  0.7519665  0.2488540  0.5073623

 Al 
  0.5172281  0.5003020  0.4895475

 Al 
  0.5082310  0.7372692  0.7515717

 Al 
  0.7445708  0.4855329  0.7552089

 Al 
  0.7413333  0.7586295  0.4863918

