32 
charge = 0 
 Al 
  0.9898619  0.0041755  0.0128013

 Al 
  0.0002042  0.2326853  0.2655933

 Al 
  0.2717390  0.0095094  0.2709445

 Al 
  0.2628459  0.2389362  0.9939904

 Al 
  0.5070207  0.9932243  0.0365118

 Al 
  0.4994369  0.2667875  0.2467502

 Al 
  0.7543859  0.9912777  0.2585219

 Al 
  0.7332855  0.2450980  0.0016719

 Al 
  0.9863237  0.4871566  0.0104958

 Al 
  0.0226202  0.7699644  0.2528006

 Al 
  0.2431315  0.5023056  0.2430016

 Al 
  0.2323078  0.7538748  0.9836506

 Al 
  0.0011089  0.9982724  0.5100428

 Al 
  0.0085157  0.2513811  0.7534565

 Al 
  0.2618521  0.9934186  0.7396243

 Al 
  0.2560170  0.2781323  0.4969333

 Al 
  0.9925573  0.5309316  0.4847062

 Al 
  0.9794329  0.7433778  0.7488020

 Al 
  0.2438629  0.5198208  0.7437812

 Al 
  0.2781818  0.7576853  0.4853708

 Al 
  0.4791372  0.4936253  0.9810084

 Al 
  0.4865180  0.7342619  0.2386417

 Al 
  0.7529887  0.4949730  0.2531112

 Al 
  0.7467972  0.7317410  0.9892394

 Al 
  0.5097062  0.0071952  0.4955175

 Al 
  0.5008217  0.2513551  0.7524838

 Al 
  0.7363138  0.9882209  0.7608324

 Al 
  0.7507698  0.2494196  0.5058735

 Al 
  0.5157777  0.4985236  0.4889436

 Al 
  0.5073486  0.7369982  0.7526768

 Al 
  0.7477006  0.4869722  0.7540728

 Al 
  0.7414274  0.7587013  0.4881466

