32 
charge = 0 
 Al 
  0.9902134  0.0044577  0.0124771

 Al 
  0.0000087  0.2328870  0.2654646

 Al 
  0.2718578  0.0092557  0.2704730

 Al 
  0.2627939  0.2391045  0.9935040

 Al 
  0.5071902  0.9933295  0.0359066

 Al 
  0.4997017  0.2663754  0.2465534

 Al 
  0.7539194  0.9913383  0.2582248

 Al 
  0.7333313  0.2449322  0.0021336

 Al 
  0.9866281  0.4876863  0.0103361

 Al 
  0.0219643  0.7692156  0.2527858

 Al 
  0.2436278  0.5022004  0.2434112

 Al 
  0.2328536  0.7535258  0.9841703

 Al 
  0.0008143  0.9982303  0.5099599

 Al 
  0.0080627  0.2516299  0.7535048

 Al 
  0.2615823  0.9930684  0.7392604

 Al 
  0.2562423  0.2772548  0.4970435

 Al 
  0.9927231  0.5310777  0.4846196

 Al 
  0.9799280  0.7437404  0.7492587

 Al 
  0.2438716  0.5190968  0.7441785

 Al 
  0.2778018  0.7581023  0.4857396

 Al 
  0.4791260  0.4938085  0.9812076

 Al 
  0.4864363  0.7346431  0.2391590

 Al 
  0.7525704  0.4956599  0.2528650

 Al 
  0.7465732  0.7320578  0.9895673

 Al 
  0.5097384  0.0068883  0.4957960

 Al 
  0.5009517  0.2514331  0.7524009

 Al 
  0.7365539  0.9883483  0.7603844

 Al 
  0.7504987  0.2495570  0.5054923

 Al 
  0.5153817  0.4980991  0.4888397

 Al 
  0.5071048  0.7369747  0.7529194

 Al 
  0.7484889  0.4873373  0.7537585

 Al 
  0.7414571  0.7586877  0.4886058

