32 
charge = 0 
 Al 
  0.9928234  0.0062942  0.0097235

 Al 
  0.9986535  0.2350131  0.2643458

 Al 
  0.2719469  0.0076370  0.2666836

 Al 
  0.2618472  0.2402344  0.9903396

 Al 
  0.5081469  0.9938778  0.0304948

 Al 
  0.5016237  0.2632357  0.2454198

 Al 
  0.7506918  0.9919076  0.2560146

 Al 
  0.7340961  0.2438679  0.0054193

 Al 
  0.9891825  0.4914299  0.0091382

 Al 
  0.0169002  0.7637976  0.2524479

 Al 
  0.2470769  0.5013576  0.2461586

 Al 
  0.2370254  0.7512227  0.9882295

 Al 
  0.9988218  0.9978912  0.5095206

 Al 
  0.0048067  0.2533402  0.7537288

 Al 
  0.2596394  0.9908272  0.7370279

 Al 
  0.2576605  0.2707465  0.4980236

 Al 
  0.9941797  0.5312868  0.4843597

 Al 
  0.9837607  0.7464866  0.7523885

 Al 
  0.2437416  0.5135983  0.7465596

 Al 
  0.2745297  0.7605057  0.4890154

 Al 
  0.4795889  0.4954359  0.9833090

 Al 
  0.4865551  0.7373249  0.2425350

 Al 
  0.7496225  0.5006039  0.2509232

 Al 
  0.7449198  0.7345775  0.9926464

 Al 
  0.5099884  0.0048859  0.4979580

 Al 
  0.5016744  0.2516447  0.7514269

 Al 
  0.7384276  0.9896107  0.7572843

 Al 
  0.7489184  0.2504901  0.5027127

 Al 
  0.5122246  0.4953938  0.4886466

 Al 
  0.5051631  0.7372667  0.7542436

 Al 
  0.7540085  0.4899856  0.7512264

 Al 
  0.7417541  0.7582236  0.4920524

