32 
charge = 0 
 Al 
  0.9905698  0.0047362  0.0121343

 Al 
  0.9998144  0.2331147  0.2653284

 Al 
  0.2719506  0.0090082  0.2699854

 Al 
  0.2627197  0.2392716  0.9930251

 Al 
  0.5073524  0.9934273  0.0352606

 Al 
  0.4999703  0.2659547  0.2463653

 Al 
  0.7534516  0.9914051  0.2579216

 Al 
  0.7333931  0.2447688  0.0025989

 Al 
  0.9869499  0.4882172  0.0101728

 Al 
  0.0212923  0.7684595  0.2527635

 Al 
  0.2441241  0.5020915  0.2438147

 Al 
  0.2334117  0.7531805  0.9847062

 Al 
  0.0005235  0.9981857  0.5098832

 Al 
  0.0076073  0.2518786  0.7535506

 Al 
  0.2613113  0.9927244  0.7389077

 Al 
  0.2564626  0.2763650  0.4971610

 Al 
  0.9929001  0.5311940  0.4845441

 Al 
  0.9804354  0.7441092  0.7497129

 Al 
  0.2438728  0.5183568  0.7445622

 Al 
  0.2774009  0.7585008  0.4861356

 Al 
  0.4791322  0.4940052  0.9814316

 Al 
  0.4863794  0.7350243  0.2396676

 Al 
  0.7521509  0.4963517  0.2526100

 Al 
  0.7463455  0.7323845  0.9899250

 Al 
  0.5097706  0.0065875  0.4960819

 Al 
  0.5010742  0.2514975  0.7523019

 Al 
  0.7368014  0.9884894  0.7599376

 Al 
  0.7502401  0.2496931  0.5051074

 Al 
  0.5149720  0.4976833  0.4887543

 Al 
  0.5068524  0.7369685  0.7531471

 Al 
  0.7492785  0.4877048  0.7534305

 Al 
  0.7414905  0.7586605  0.4890723

