32 
charge = 0 
 Al 
  0.9964185  0.0080776  0.0054156

 Al 
  0.9970509  0.2392839  0.2623806

 Al 
  0.2702366  0.0059428  0.2607965

 Al 
  0.2594401  0.2414979  0.9871801

 Al 
  0.5085181  0.9940300  0.0209643

 Al 
  0.5039169  0.2587112  0.2446117

 Al 
  0.7470051  0.9928358  0.2531038

 Al 
  0.7362544  0.2430127  0.0093028

 Al 
  0.9931724  0.4961017  0.0076023

 Al 
  0.0095181  0.7570442  0.2512933

 Al 
  0.2512722  0.4999765  0.2493589

 Al 
  0.2430276  0.7488812  0.9941649

 Al 
  0.9965373  0.9974123  0.5091023

 Al 
  0.0006188  0.2552015  0.7535617

 Al 
  0.2570751  0.9887345  0.7353052

 Al 
  0.2589080  0.2617358  0.4996857

 Al 
  0.9965732  0.5294738  0.4850700

 Al 
  0.9893520  0.7503478  0.7560826

 Al 
  0.2432528  0.5059490  0.7485050

 Al 
  0.2689817  0.7620303  0.4944248

 Al 
  0.4816841  0.4980595  0.9875637

 Al 
  0.4883063  0.7407826  0.2462155

 Al 
  0.7460621  0.5069204  0.2481486

 Al 
  0.7428135  0.7384721  0.9979729

 Al 
  0.5102210  0.0027845  0.5009814

 Al 
  0.5023254  0.2512438  0.7494567

 Al 
  0.7412096  0.9920412  0.7536137

 Al 
  0.7477192  0.2516076  0.4990533

 Al 
  0.5074316  0.4928840  0.4897802

 Al 
  0.5023105  0.7386318  0.7550059

 Al 
  0.7604500  0.4935894  0.7474345

 Al 
  0.7423370  0.7567051  0.4968603

