32 
charge = 0 
 Al 
  0.0003898  0.0089909  0.0005693

 Al 
  0.9957836  0.2453233  0.2595131

 Al 
  0.2662121  0.0044527  0.2535134

 Al 
  0.2558970  0.2426291  0.9853968

 Al 
  0.5073783  0.9935659  0.0080219

 Al 
  0.5055034  0.2533328  0.2445683

 Al 
  0.7440337  0.9938629  0.2501782

 Al 
  0.7401639  0.2431612  0.0122147

 Al 
  0.9978813  0.5007512  0.0061098

 Al 
  0.0008972  0.7509443  0.2489666

 Al 
  0.2552844  0.4981127  0.2523675

 Al 
  0.2499072  0.7474345  0.0010136

 Al 
  0.9945721  0.9970100  0.5083424

 Al 
  0.9963158  0.2563400  0.7525061

 Al 
  0.2543785  0.9879721  0.7356059

 Al 
  0.2592607  0.2513836  0.5016818

 Al 
  0.9994579  0.5248057  0.4874746

 Al 
  0.9958628  0.7545369  0.7595466

 Al 
  0.2427912  0.4977996  0.7492438

 Al 
  0.2616665  0.7612903  0.5006200

 Al 
  0.4860353  0.5009059  0.9935870

 Al 
  0.4918011  0.7446500  0.2496931

 Al 
  0.7427813  0.5130291  0.2453653

 Al 
  0.7410487  0.7434137  0.0042151

 Al 
  0.5099253  0.0011373  0.5040134

 Al 
  0.5031125  0.2503156  0.7470001

 Al 
  0.7446030  0.9955349  0.7503453

 Al 
  0.7474296  0.2527239  0.4953666

 Al 
  0.5017685  0.4917974  0.4928172

 Al 
  0.4992042  0.7409868  0.7547003

 Al 
  0.7654522  0.4979197  0.7431526

 Al 
  0.7432033  0.7538872  0.5022870

