32 
charge = 0 
 Al 
  0.0000644  0.0089661  0.0009591

 Al 
  0.9958579  0.2447775  0.2597866

 Al 
  0.2666390  0.0045691  0.2541471

 Al 
  0.2562138  0.2425412  0.9854624

 Al 
  0.5075491  0.9936204  0.0091926

 Al 
  0.5054279  0.2537981  0.2445374

 Al 
  0.7442268  0.9937800  0.2504059

 Al 
  0.7397703  0.2430932  0.0120539

 Al 
  0.9974828  0.5003849  0.0062299

 Al 
  0.0016262  0.7513774  0.2492055

 Al 
  0.2549812  0.4982823  0.2521373

 Al 
  0.2493342  0.7475051  0.0004381

 Al 
  0.9947094  0.9970336  0.5084377

 Al 
  0.9966598  0.2562942  0.7526385

 Al 
  0.2545938  0.9879560  0.7354661

 Al 
  0.2592817  0.2522672  0.5015210

 Al 
  0.9992129  0.5253106  0.4871987

 Al 
  0.9953109  0.7542015  0.7592817

 Al 
  0.2428098  0.4984469  0.7492352

 Al 
  0.2623212  0.7614635  0.5001262

 Al 
  0.4855812  0.5006906  0.9930461

 Al 
  0.4914583  0.7443159  0.2494072

 Al 
  0.7430263  0.5125773  0.2455658

 Al 
  0.7411564  0.7429694  0.0037189

 Al 
  0.5099871  0.0012524  0.5037869

 Al 
  0.5030296  0.2504022  0.7471982

 Al 
  0.7443047  0.9952106  0.7505792

 Al 
  0.7474147  0.2526323  0.4956512

 Al 
  0.5022462  0.4918110  0.4924843

 Al 
  0.4994518  0.7407665  0.7547720

 Al 
  0.7651515  0.4975311  0.7434991

 Al 
  0.7431204  0.7541718  0.5018304

