32 
charge = 0 
 Al 
  0.9975818  0.0084699  0.0039850

 Al 
  0.9966103  0.2409163  0.2616318

 Al 
  0.2692998  0.0054812  0.2587533

 Al 
  0.2584810  0.2418494  0.9864536

 Al 
  0.5083771  0.9939508  0.0174509

 Al 
  0.5045122  0.2571915  0.2445065

 Al 
  0.7460064  0.9931402  0.2522128

 Al 
  0.7372172  0.2429187  0.0103423

 Al 
  0.9945225  0.4975113  0.0071482

 Al 
  0.0070479  0.7550889  0.2507363

 Al 
  0.2525147  0.4994728  0.2502896

 Al 
  0.2450176  0.7483281  0.9961376

 Al 
  0.9959000  0.9972724  0.5089451

 Al 
  0.9993305  0.2556519  0.7533637

 Al 
  0.2562683  0.9883174  0.7351134

 Al 
  0.2591357  0.2587743  0.5002661

 Al 
  0.9973962  0.5284157  0.4855762

 Al 
  0.9912170  0.7515915  0.7571543

 Al 
  0.2430820  0.5035122  0.7488652

 Al 
  0.2669744  0.7620996  0.4962564

 Al 
  0.4827150  0.4989258  0.9891973

 Al 
  0.4891750  0.7418865  0.2472588

 Al 
  0.7450337  0.5088238  0.2472786

 Al 
  0.7422120  0.7398334  0.9998107

 Al 
  0.5102210  0.0022400  0.5019207

 Al 
  0.5025234  0.2510086  0.7487426

 Al 
  0.7421588  0.9929706  0.7525667

 Al 
  0.7475274  0.2519405  0.4979283

 Al 
  0.5058079  0.4923692  0.4904609

 Al 
  0.5013848  0.7392419  0.7550406

 Al 
  0.7621838  0.4947899  0.7461772

 Al 
  0.7425635  0.7560146  0.4984283

