32 
charge = 0 
 Al 
  0.9993911  0.0088820  0.0017710

 Al 
  0.9960311  0.2436785  0.2603262

 Al 
  0.2674583  0.0048116  0.2554329

 Al 
  0.2568561  0.2423581  0.9856492

 Al 
  0.5078523  0.9937280  0.0115427

 Al 
  0.5052361  0.2547423  0.2444928

 Al 
  0.7446574  0.9936080  0.2508824

 Al 
  0.7390043  0.2429892  0.0116702

 Al 
  0.9966685  0.4996213  0.0064749

 Al 
  0.0031187  0.7523142  0.2496696

 Al 
  0.2543389  0.4986226  0.2516546

 Al 
  0.2481560  0.7476783  0.9992575

 Al 
  0.9950089  0.9970893  0.5086097

 Al 
  0.9973764  0.2561692  0.7528810

 Al 
  0.2550406  0.9879746  0.7352532

 Al 
  0.2592941  0.2540654  0.5011819

 Al 
  0.9987129  0.5262772  0.4866776

 Al 
  0.9941835  0.7535035  0.7587236

 Al 
  0.2428630  0.4997970  0.7491882

 Al 
  0.2636367  0.7617519  0.4990916

 Al 
  0.4847037  0.5002302  0.9919546

 Al 
  0.4907839  0.7436402  0.2488243

 Al 
  0.7435449  0.5116096  0.2460027

 Al 
  0.7414039  0.7420808  0.0026744

 Al 
  0.5100898  0.0014999  0.5033043

 Al 
  0.5028749  0.2505767  0.7476127

 Al 
  0.7437020  0.9945659  0.7510816

 Al 
  0.7474048  0.2524442  0.4962514

 Al 
  0.5032251  0.4918828  0.4918519

 Al 
  0.4999678  0.7403260  0.7548933

 Al 
  0.7644584  0.4967539  0.7442206

 Al 
  0.7429583  0.7547250  0.5008960

