32 
charge = 0 
 Al 
  0.0022202  0.0089290  0.9984456

 Al 
  0.9955126  0.2485731  0.2577942

 Al 
  0.2634016  0.0037696  0.2497946

 Al 
  0.2540320  0.2431352  0.9853658

 Al 
  0.5061061  0.9932553  0.0010061

 Al 
  0.5056816  0.2505965  0.2448579

 Al 
  0.7431575  0.9943344  0.2489481

 Al 
  0.7426699  0.2437850  0.0127494

 Al 
  0.0001658  0.5027684  0.0054180

 Al 
  0.9967229  0.7487946  0.2474543

 Al 
  0.2568833  0.4970917  0.2536013

 Al 
  0.2531385  0.7472093  0.0043290

 Al 
  0.9938790  0.9969185  0.5075986

 Al 
  0.9943864  0.2563858  0.7515779

 Al 
  0.2532065  0.9883979  0.7369004

 Al 
  0.2589018  0.2462502  0.5025494

 Al 
  0.0008750  0.5214630  0.4893619

 Al 
  0.9990446  0.7563536  0.7609772

 Al 
  0.2428184  0.4942775  0.7491077

 Al 
  0.2577570  0.7598498  0.5032969

 Al 
  0.4890104  0.5020049  0.9967799

 Al 
  0.4938963  0.7466549  0.2513799

 Al 
  0.7414831  0.5153111  0.2443976

 Al 
  0.7406465  0.7461042  0.0068425

 Al 
  0.5093820  0.0005111  0.5051780

 Al 
  0.5036855  0.2498168  0.7459631

 Al 
  0.7463888  0.9975001  0.7491721

 Al 
  0.7476486  0.2532622  0.4938246

 Al 
  0.4990409  0.4920289  0.4950337

 Al 
  0.4978565  0.7422999  0.7540988

 Al 
  0.7666687  0.5002908  0.7412727

 Al 
  0.7437305  0.7520754  0.5049205

