32 
charge = 0 
 Al 
  0.0030741  0.0087694  0.9975063

 Al 
  0.9954916  0.2502017  0.2568623

 Al 
  0.2618063  0.0034231  0.2479518

 Al 
  0.2531137  0.2433914  0.9855762

 Al 
  0.5053091  0.9931377  0.9974519

 Al 
  0.5056049  0.2492302  0.2450572

 Al 
  0.7428828  0.9945683  0.2483998

 Al 
  0.7440325  0.2442379  0.0127494

 Al 
  0.0012685  0.5036916  0.0050691

 Al 
  0.9947305  0.7479778  0.2466549

 Al 
  0.2575578  0.4965707  0.2541409

 Al 
  0.2546483  0.7472006  0.0059391

 Al 
  0.9936055  0.9969049  0.5070888

 Al 
  0.9934855  0.2562670  0.7510173

 Al 
  0.2526806  0.9888211  0.7378471

 Al 
  0.2585714  0.2437268  0.5029182

 Al 
  0.0015680  0.5195721  0.4904646

 Al 
  0.0005854  0.7571469  0.7616071

 Al 
  0.2429298  0.4927120  0.7489270

 Al 
  0.2557683  0.7588758  0.5044738

 Al 
  0.4906836  0.5024343  0.9983627

 Al 
  0.4949730  0.7476919  0.2522437

 Al 
  0.7409225  0.5161848  0.2440659

 Al 
  0.7405970  0.7475063  0.0079254

 Al 
  0.5089971  0.0002166  0.5056519

 Al 
  0.5040382  0.2495829  0.7455423

 Al 
  0.7472996  0.9985174  0.7487092

 Al 
  0.7478281  0.2535382  0.4931414

 Al 
  0.4977365  0.4923271  0.4963071

 Al 
  0.4972588  0.7429471  0.7536892

 Al 
  0.7669200  0.5015333  0.7404596

 Al 
  0.7440300  0.7510965  0.5062002

