32 
charge = 0 
 Al 
  0.0036273  0.0086171  0.9969197

 Al 
  0.9955213  0.2512994  0.2562051

 Al 
  0.2606567  0.0031805  0.2467130

 Al 
  0.2525024  0.2435709  0.9857990

 Al 
  0.5047188  0.9930845  0.9950398

 Al 
  0.5054948  0.2483045  0.2452044

 Al 
  0.7427553  0.9947292  0.2480533

 Al 
  0.7449879  0.2445956  0.0126504

 Al 
  0.0019987  0.5042857  0.0048277

 Al 
  0.9934248  0.7475162  0.2461079

 Al 
  0.2579662  0.4962168  0.2544775

 Al 
  0.2556260  0.7472229  0.0070120

 Al 
  0.9934459  0.9969061  0.5066878

 Al 
  0.9928964  0.2561334  0.7506027

 Al 
  0.2523477  0.9891837  0.7385934

 Al 
  0.2582892  0.2420350  0.5031422

 Al 
  0.0020321  0.5182169  0.4912640

 Al 
  0.0016076  0.7576358  0.7620006

 Al 
  0.2430461  0.4917281  0.7487674

 Al 
  0.2544082  0.7581308  0.5052101

 Al 
  0.4918816  0.5026768  0.9994208

 Al 
  0.4957032  0.7484134  0.2528427

 Al 
  0.7405747  0.5166700  0.2439013

 Al 
  0.7406205  0.7484778  0.0085590

 Al 
  0.5086951  0.0000149  0.5059316

 Al 
  0.5043055  0.2494344  0.7452997

 Al 
  0.7479246  0.9992166  0.7484370

 Al 
  0.7479692  0.2537275  0.4927108

 Al 
  0.4968789  0.4925895  0.4972266

 Al 
  0.4968838  0.7433753  0.7533748

 Al 
  0.7669583  0.5023959  0.7399658

 Al 
  0.7442503  0.7504146  0.5070516

