32 
charge = 0 
 Al 
  0.0044391  0.0083214  0.9960967

 Al 
  0.9956351  0.2529739  0.2551520

 Al 
  0.2587867  0.0027957  0.2448282

 Al 
  0.2515791  0.2438617  0.9862618

 Al 
  0.5037424  0.9930560  0.9913420

 Al 
  0.5052448  0.2468813  0.2454421

 Al 
  0.7426427  0.9949879  0.2475558

 Al 
  0.7464989  0.2452193  0.0123509

 Al 
  0.0030964  0.5051532  0.0044490

 Al 
  0.9914930  0.7469445  0.2452775

 Al 
  0.2585181  0.4956735  0.2549502

 Al 
  0.2570578  0.7472897  0.0086394

 Al 
  0.9932367  0.9969234  0.5059799

 Al 
  0.9920251  0.2558512  0.7499134

 Al 
  0.2518675  0.9898520  0.7398891

 Al 
  0.2577682  0.2394597  0.5034417

 Al 
  0.0027400  0.5160289  0.4925672

 Al 
  0.0031446  0.7583078  0.7625514

 Al 
  0.2432899  0.4903284  0.7484704

 Al 
  0.2522969  0.7568697  0.5062497

 Al 
  0.4938184  0.5029776  0.0010160

 Al 
  0.4968219  0.7495570  0.2537919

 Al 
  0.7400884  0.5172454  0.2437392

 Al 
  0.7407381  0.7500062  0.0093733

 Al 
  0.5081679  0.9996980  0.5063004

 Al 
  0.5047572  0.2492240  0.7449928

 Al 
  0.7488973  0.0003057  0.7480781

 Al 
  0.7482142  0.2540258  0.4920957

 Al 
  0.4955980  0.4930758  0.4987253

 Al 
  0.4963504  0.7440090  0.7528377

 Al 
  0.7668259  0.5037461  0.7393087

 Al 
  0.7446203  0.7493503  0.5083313

