32 
charge = 0 
 Al 
  0.0049688  0.0080788  0.9955869

 Al 
  0.9957613  0.2541124  0.2543983

 Al 
  0.2574353  0.0025197  0.2435523

 Al 
  0.2509579  0.2440758  0.9866566

 Al 
  0.5030308  0.9930808  0.9888186

 Al 
  0.5050196  0.2459000  0.2456067

 Al 
  0.7426192  0.9951772  0.2472390

 Al 
  0.7475595  0.2456970  0.0120501

 Al 
  0.0038327  0.5057200  0.0041805

 Al 
  0.9902233  0.7466413  0.2447218

 Al 
  0.2588449  0.4953035  0.2552448

 Al 
  0.2579922  0.7473491  0.0097409

 Al 
  0.9931167  0.9969469  0.5054317

 Al 
  0.9914472  0.2556074  0.7494047

 Al 
  0.2515581  0.9903854  0.7408730

 Al 
  0.2573511  0.2377098  0.5036186

 Al 
  0.0032226  0.5144597  0.4935077

 Al 
  0.0041768  0.7587124  0.7628929

 Al 
  0.2435053  0.4894448  0.7482377

 Al 
  0.2508329  0.7559316  0.5069006

 Al 
  0.4952082  0.5031360  0.0020853

 Al 
  0.4975806  0.7503688  0.2544639

 Al 
  0.7397876  0.5175226  0.2436909

 Al 
  0.7408705  0.7510792  0.0098163

 Al 
  0.5077669  0.9994703  0.5065145

 Al 
  0.5050963  0.2490929  0.7448295

 Al 
  0.7495743  0.0010606  0.7478664

 Al 
  0.7483961  0.2542349  0.4917046

 Al 
  0.4947441  0.4934607  0.4998094

 Al 
  0.4960150  0.7444223  0.7524355

 Al 
  0.7666069  0.5046842  0.7389337

 Al 
  0.7448975  0.7486139  0.5091864

