32 
charge = 0 
 Al 
  0.0038996  0.0085280  0.9966375

 Al 
  0.9955497  0.2518539  0.2558636

 Al 
  0.2600540  0.0030555  0.2460881

 Al 
  0.2521954  0.2436649  0.9859363

 Al 
  0.5044057  0.9930672  0.9938184

 Al 
  0.5054230  0.2478355  0.2452812

 Al 
  0.7427070  0.9948121  0.2478850

 Al 
  0.7454817  0.2447911  0.0125712

 Al 
  0.0023637  0.5045777  0.0047040

 Al 
  0.9927776  0.7473108  0.2458331

 Al 
  0.2581580  0.4960373  0.2546384

 Al 
  0.2561074  0.7472415  0.0075516

 Al 
  0.9933716  0.9969098  0.5064675

 Al 
  0.9926056  0.2560504  0.7503824

 Al 
  0.2521843  0.9893891  0.7390018

 Al 
  0.2581283  0.2411824  0.5032461

 Al 
  0.0022672  0.5175090  0.4916848

 Al 
  0.0021187  0.7578684  0.7621900

 Al 
  0.2431179  0.4912517  0.7486758

 Al 
  0.2537152  0.7577298  0.5055653

 Al 
  0.4925078  0.5027858  0.9999505

 Al 
  0.4960732  0.7487860  0.2531521

 Al 
  0.7404077  0.5168828  0.2438357

 Al 
  0.7406490  0.7489765  0.0088498

 Al 
  0.5085293  0.9999121  0.5060616

 Al 
  0.5044490  0.2493627  0.7451896

 Al 
  0.7482439  0.9995743  0.7483120

 Al 
  0.7480471  0.2538253  0.4925016

 Al 
  0.4964519  0.4927392  0.4977105

 Al 
  0.4967019  0.7435870  0.7532040

 Al 
  0.7669398  0.5028377  0.7397357

 Al 
  0.7443679  0.7500656  0.5074774

