32 
charge = 0 
 Al 
  0.0069576  0.0067744  0.9939149

 Al 
  0.9966747  0.2587892  0.2509814

 Al 
  0.2511955  0.0012351  0.2383781

 Al 
  0.2484679  0.2451673  0.9889226

 Al 
  0.4997995  0.9936538  0.9784652

 Al 
  0.5036731  0.2416960  0.2462725

 Al 
  0.7429348  0.9961586  0.2460930

 Al 
  0.7521608  0.2481016  0.0100181

 Al 
  0.0068029  0.5078684  0.0029380

 Al 
  0.9854401  0.7460522  0.2426514

 Al 
  0.2597805  0.4937899  0.2562497

 Al 
  0.2615118  0.7475806  0.0142580

 Al 
  0.9927900  0.9971115  0.5025766

 Al 
  0.9891899  0.2541966  0.7469692

 Al 
  0.2503836  0.9932021  0.7456438

 Al 
  0.2551173  0.2304527  0.5041198

 Al 
  0.0052299  0.5073350  0.4977761

 Al 
  0.0083164  0.7599042  0.7640055

 Al 
  0.2448035  0.4863138  0.7471128

 Al 
  0.2445114  0.7515247  0.5091245

 Al 
  0.5015197  0.5034280  0.0062584

 Al 
  0.5006485  0.7540629  0.2575380

 Al 
  0.7388161  0.5176823  0.2440263

 Al 
  0.7417937  0.7558054  0.0106368

 Al 
  0.5057720  0.9983800  0.5071110

 Al 
  0.5067682  0.2487018  0.7445250

 Al 
  0.7525036  0.0043030  0.7471821

 Al 
  0.7492240  0.2551384  0.4903161

 Al 
  0.4913742  0.4954346  0.5047733

 Al 
  0.4948319  0.7459123  0.7505012

 Al 
  0.7646923  0.5086431  0.7381355

 Al 
  0.7463121  0.7456017  0.5125254

