32 
charge = 0 
 Al 
  0.0081407  0.0055307  0.9931550

 Al 
  0.9977476  0.2621850  0.2481461

 Al 
  0.2459210  0.0001064  0.2347730

 Al 
  0.2467229  0.2462997  0.9912022

 Al 
  0.4972526  0.9946896  0.9711141

 Al 
  0.5022561  0.2383805  0.2466945

 Al 
  0.7436043  0.9972316  0.2454148

 Al 
  0.7557287  0.2503230  0.0077273

 Al 
  0.0089377  0.5092693  0.0018056

 Al 
  0.9825269  0.7462749  0.2415375

 Al 
  0.2600267  0.4927182  0.2567831

 Al 
  0.2637493  0.7475583  0.0175313

 Al 
  0.9926897  0.9972736  0.4998082

 Al 
  0.9876900  0.2527845  0.7448332

 Al 
  0.2495409  0.9958814  0.7497092

 Al 
  0.2529578  0.2250743  0.5042325

 Al 
  0.0067113  0.5014145  0.5012623

 Al 
  0.0112247  0.7602272  0.7645030

 Al 
  0.2461871  0.4844909  0.7462663

 Al 
  0.2395389  0.7478615  0.5102705

 Al 
  0.5067076  0.5033055  0.0089562

 Al 
  0.5027932  0.7571853  0.2601691

 Al 
  0.7384375  0.5167393  0.2448938

 Al 
  0.7427726  0.7595936  0.0100663

 Al 
  0.5039850  0.9973739  0.5073078

 Al 
  0.5082818  0.2486362  0.7446599

 Al 
  0.7548092  0.0067856  0.7467749

 Al 
  0.7498503  0.2558413  0.4895092

 Al 
  0.4890884  0.4972056  0.5088634

 Al 
  0.4941364  0.7466945  0.7488256

 Al 
  0.7622878  0.5114908  0.7385476

 Al 
  0.7476944  0.7435721  0.5146540

