32 
charge = 0 
 Al 
  0.0064898  0.0071469  0.9942688

 Al 
  0.9963851  0.2576147  0.2518910

 Al 
  0.2528687  0.0015841  0.2396626

 Al 
  0.2490842  0.2448530  0.9882592

 Al 
  0.5006510  0.9934298  0.9810542

 Al 
  0.5040741  0.2427850  0.2461116

 Al 
  0.7427949  0.9958715  0.2463579

 Al 
  0.7509715  0.2474296  0.0106468

 Al 
  0.0060628  0.5073536  0.0032771

 Al 
  0.9865687  0.7461042  0.2431278

 Al 
  0.2596084  0.4941674  0.2560269

 Al 
  0.2606740  0.7475373  0.0131231

 Al 
  0.9928494  0.9970608  0.5033884

 Al 
  0.9897394  0.2546099  0.7476338

 Al 
  0.2506695  0.9924001  0.7443456

 Al 
  0.2557571  0.2322892  0.5040283

 Al 
  0.0047213  0.5092285  0.4966462

 Al 
  0.0072905  0.7596790  0.7637704

 Al 
  0.2444136  0.4870291  0.7474110

 Al 
  0.2461499  0.7527078  0.5086332

 Al 
  0.4998453  0.5034058  0.0052497

 Al 
  0.4998874  0.7530741  0.2567125

 Al 
  0.7390179  0.5177924  0.2438580

 Al 
  0.7415116  0.7545678  0.0105898

 Al 
  0.5063239  0.9986820  0.5070009

 Al 
  0.5063054  0.2487736  0.7445473

 Al 
  0.7517425  0.0034677  0.7473331

 Al 
  0.7490087  0.2549045  0.4906329

 Al 
  0.4921996  0.4948852  0.5034516

 Al 
  0.4951030  0.7455745  0.7510272

 Al 
  0.7653235  0.5076432  0.7382097

 Al 
  0.7459111  0.7463467  0.5117197

