32 
charge = 0 
 Al 
  0.0067274  0.0069638  0.9940857

 Al 
  0.9965249  0.2582026  0.2514393

 Al 
  0.2520395  0.0014108  0.2390179

 Al 
  0.2487748  0.2450064  0.9885835

 Al 
  0.5002277  0.9935350  0.9797560

 Al 
  0.5038785  0.2422430  0.2461920

 Al 
  0.7428593  0.9960113  0.2462230

 Al 
  0.7515643  0.2477600  0.0103423

 Al 
  0.0064341  0.5076135  0.0031100

 Al 
  0.9859957  0.7460695  0.2428840

 Al 
  0.2597000  0.4939780  0.2561408

 Al 
  0.2610972  0.7475608  0.0136912

 Al 
  0.9928172  0.9970855  0.5029900

 Al 
  0.9894622  0.2544070  0.7473058

 Al 
  0.2505260  0.9927937  0.7449879

 Al 
  0.2554428  0.2313710  0.5040778

 Al 
  0.0049762  0.5082892  0.4972068

 Al 
  0.0078053  0.7597990  0.7638916

 Al 
  0.2446030  0.4866653  0.7472625

 Al 
  0.2453344  0.7521212  0.5088845

 Al 
  0.5006769  0.5034219  0.0057584

 Al 
  0.5002698  0.7535642  0.2571209

 Al 
  0.7389127  0.5177504  0.2439347

 Al 
  0.7416489  0.7551829  0.0106282

 Al 
  0.5060517  0.9985335  0.5070591

 Al 
  0.5065343  0.2487352  0.7445324

 Al 
  0.7521212  0.0038847  0.7472563

 Al 
  0.7491164  0.2550220  0.4904708

 Al 
  0.4917838  0.4951562  0.5041075

 Al 
  0.4949656  0.7457477  0.7507673

 Al 
  0.7650191  0.5081444  0.7381602

 Al 
  0.7461079  0.7459717  0.5121269

