32 
charge = 0 
 Al 
  0.0085615  0.0048686  0.9929558

 Al 
  0.9983627  0.2637431  0.2467316

 Al 
  0.2432491  0.9995161  0.2332100

 Al 
  0.2459457  0.2469766  0.9924459

 Al 
  0.4960732  0.9954037  0.9678630

 Al 
  0.5014554  0.2367507  0.2468554

 Al 
  0.7440746  0.9979036  0.2451549

 Al 
  0.7574378  0.2515061  0.0064069

 Al 
  0.0099178  0.5098696  0.0011757

 Al 
  0.9814118  0.7465806  0.2412121

 Al 
  0.2600032  0.4922405  0.2569761

 Al 
  0.2646824  0.7474234  0.0190238

 Al 
  0.9926699  0.9973467  0.4982810

 Al 
  0.9870737  0.2520284  0.7437392

 Al 
  0.2491139  0.9973071  0.7517103

 Al 
  0.2517895  0.2225694  0.5041867

 Al 
  0.0073833  0.4984308  0.5029788

 Al 
  0.0125192  0.7601765  0.7646255

 Al 
  0.2469630  0.4837756  0.7459259

 Al 
  0.2371182  0.7460621  0.5106368

 Al 
  0.5092706  0.5031545  0.0100490

 Al 
  0.5037387  0.7587718  0.2615242

 Al 
  0.7383979  0.5159485  0.2455312

 Al 
  0.7432961  0.7614574  0.0093758

 Al 
  0.5030642  0.9968257  0.5073474

 Al 
  0.5090750  0.2487129  0.7448208

 Al 
  0.7559254  0.0079489  0.7465831

 Al 
  0.7501250  0.2561791  0.4891899

 Al 
  0.4881070  0.4981078  0.5108745

 Al 
  0.4938518  0.7469308  0.7479729

 Al 
  0.7608670  0.5127407  0.7391453

 Al 
  0.7484741  0.7427442  0.5154893

