32 
charge = 0 
 Al 
  0.0089451  0.0030976  0.9929360

 Al 
  0.0001002  0.2672838  0.2431823

 Al 
  0.2363794  0.9979271  0.2301408

 Al 
  0.2442763  0.2491659  0.9958789

 Al 
  0.4935820  0.9978739  0.9611517

 Al 
  0.4990991  0.2326729  0.2470732

 Al 
  0.7457527  0.0002091  0.2447131

 Al 
  0.7615675  0.2547708  0.0025333

 Al 
  0.0121343  0.5111183  0.9992884

 Al 
  0.9796928  0.7478763  0.2412282

 Al 
  0.2595725  0.4912046  0.2573066

 Al 
  0.2665722  0.7465361  0.0223133

 Al 
  0.9926266  0.9974345  0.4938902

 Al 
  0.9860663  0.2500186  0.7409435

 Al 
  0.2478021  0.0011274  0.7564861

 Al 
  0.2485471  0.2168061  0.5036855

 Al 
  0.0087941  0.4907047  0.5072373

 Al 
  0.0152715  0.7593634  0.7645426

 Al 
  0.2491646  0.4824563  0.7455287

 Al 
  0.2311457  0.7416836  0.5108856

 Al 
  0.5156131  0.5025333  0.0119598

 Al 
  0.5057274  0.7628508  0.2650723

 Al 
  0.7388619  0.5129499  0.2479060

 Al 
  0.7446612  0.7661403  0.0062868

 Al 
  0.5006794  0.9952651  0.5073796

 Al 
  0.5112012  0.2494035  0.7454322

 Al 
  0.7586048  0.0105292  0.7460150

 Al 
  0.7506386  0.2569997  0.4885525

 Al 
  0.4861715  0.5003614  0.5157406

 Al 
  0.4932318  0.7470299  0.7458170

 Al 
  0.7566618  0.5152492  0.7420759

 Al 
  0.7508539  0.7413581  0.5168160

