32 
charge = 0 
 Al 
  0.0087632  0.0044230  0.9928853

 Al 
  0.9987897  0.2647134  0.2458109

 Al 
  0.2414893  0.9991201  0.2322843

 Al 
  0.2454730  0.2474704  0.9932936

 Al 
  0.4953505  0.9959482  0.9659064

 Al 
  0.5008948  0.2356925  0.2469407

 Al 
  0.7444372  0.9984048  0.2450114

 Al 
  0.7585305  0.2523093  0.0054799

 Al 
  0.0105267  0.5102285  0.0007339

 Al 
  0.9808116  0.7468455  0.2410933

 Al 
  0.2599413  0.4919484  0.2570801

 Al 
  0.2652332  0.7472786  0.0199446

 Al 
  0.9926613  0.9973863  0.4972241

 Al 
  0.9867284  0.2515210  0.7430177

 Al 
  0.2488181  0.9982674  0.7529924

 Al 
  0.2509938  0.2209977  0.5041149

 Al 
  0.0077917  0.4964630  0.5040914

 Al 
  0.0133063  0.7600639  0.7646602

 Al 
  0.2475001  0.4833696  0.7457490

 Al 
  0.2355552  0.7449037  0.5107990

 Al 
  0.5109326  0.5030258  0.0106666

 Al 
  0.5043092  0.7598176  0.2624251

 Al 
  0.7384337  0.5153148  0.2460311

 Al 
  0.7436439  0.7626689  0.0087706

 Al 
  0.5024541  0.9964482  0.5073610

 Al 
  0.5096072  0.2488132  0.7449532

 Al 
  0.7566395  0.0086728  0.7464531

 Al 
  0.7502871  0.2563957  0.4890055

 Al 
  0.4875266  0.4986968  0.5121690

 Al 
  0.4936822  0.7470261  0.7474135

 Al 
  0.7598634  0.5134845  0.7396936

 Al 
  0.7490260  0.7422813  0.5159472

