32 
charge = 0 
 Al 
  0.0089612  0.0033167  0.9929038

 Al 
  0.9998812  0.2668890  0.2436055

 Al 
  0.2372135  0.9981263  0.2304292

 Al 
  0.2444532  0.2488590  0.9954445

 Al 
  0.4938308  0.9975236  0.9618249

 Al 
  0.4994109  0.2331605  0.2470645

 Al 
  0.7455089  0.9998738  0.2447503

 Al 
  0.7610848  0.2543550  0.0030407

 Al 
  0.0118893  0.5109871  0.9995421

 Al 
  0.9798092  0.7476833  0.2411539

 Al 
  0.2596505  0.4913148  0.2572756

 Al 
  0.2663791  0.7466945  0.0219605

 Al 
  0.9926353  0.9974358  0.4944631

 Al 
  0.9861343  0.2502648  0.7412777

 Al 
  0.2479902  0.0006547  0.7559440

 Al 
  0.2489604  0.2174496  0.5037808

 Al 
  0.0086518  0.4916502  0.5067323

 Al 
  0.0149856  0.7595169  0.7645847

 Al 
  0.2488825  0.4825801  0.7455287

 Al 
  0.2318536  0.7421922  0.5109128

 Al 
  0.5148656  0.5026261  0.0118014

 Al 
  0.5055208  0.7623571  0.2646379

 Al 
  0.7387555  0.5133904  0.2475521

 Al 
  0.7444953  0.7655772  0.0067695

 Al 
  0.5009690  0.9954680  0.5073759

 Al 
  0.5109363  0.2492723  0.7453468

 Al 
  0.7582966  0.0102569  0.7460955

 Al 
  0.7505953  0.2569031  0.4886194

 Al 
  0.4863571  0.5000965  0.5151812

 Al 
  0.4933035  0.7470558  0.7460720

 Al 
  0.7572125  0.5150054  0.7416007

 Al 
  0.7505284  0.7414633  0.5167232

