32 
charge = 0 
 Al 
  0.0084365  0.0050901  0.9930090

 Al 
  0.9981536  0.2632370  0.2472006

 Al 
  0.2441364  0.9997141  0.2337087

 Al 
  0.2461957  0.2467427  0.9920264

 Al 
  0.4964556  0.9951525  0.9689075

 Al 
  0.5017276  0.2372890  0.2468059

 Al 
  0.7439087  0.9976684  0.2452354

 Al 
  0.7568771  0.2511076  0.0068573

 Al 
  0.0095998  0.5096777  0.0013910

 Al 
  0.9817559  0.7464655  0.2413012

 Al 
  0.2600205  0.4923952  0.2569167

 Al 
  0.2643854  0.7474791  0.0185399

 Al 
  0.9926749  0.9973244  0.4987983

 Al 
  0.9872667  0.2522821  0.7441030

 Al 
  0.2492575  0.9968294  0.7510519

 Al 
  0.2521831  0.2233850  0.5042102

 Al 
  0.0071667  0.4994221  0.5024120

 Al 
  0.0121021  0.7602087  0.7645946

 Al 
  0.2467007  0.4839996  0.7460299

 Al 
  0.2379164  0.7466549  0.5105304

 Al 
  0.5084241  0.5032102  0.0097062

 Al 
  0.5034342  0.7582446  0.2610725

 Al 
  0.7383991  0.5162343  0.2453035

 Al 
  0.7431204  0.7608410  0.0096357

 Al 
  0.5033711  0.9970113  0.5073375

 Al 
  0.5088090  0.2486770  0.7447614

 Al 
  0.7555579  0.0075702  0.7466474

 Al 
  0.7500384  0.2560678  0.4892914

 Al 
  0.4884201  0.4978083  0.5102111

 Al 
  0.4939421  0.7468640  0.7482563

 Al 
  0.7613534  0.5123410  0.7389164

 Al 
  0.7482080  0.7430028  0.5152307

