32 
charge = 0 
 Al 
  0.0086704  0.0046458  0.9929137

 Al 
  0.9985756  0.2642344  0.2462687

 Al 
  0.2423667  0.9993181  0.2327348

 Al 
  0.2457044  0.2472192  0.9928679

 Al 
  0.4957044  0.9956698  0.9668630

 Al 
  0.5011769  0.2362185  0.2468999

 Al 
  0.7442515  0.9981486  0.2450807

 Al 
  0.7579897  0.2519058  0.0059477

 Al 
  0.0102272  0.5100527  0.0009566

 Al 
  0.9810975  0.7467081  0.2411428

 Al 
  0.2599760  0.4920907  0.2570306

 Al 
  0.2649646  0.7473566  0.0194928

 Al 
  0.9926650  0.9973677  0.4977563

 Al 
  0.9868930  0.2517747  0.7433778

 Al 
  0.2489679  0.9977872  0.7523576

 Al 
  0.2513935  0.2217724  0.5041545

 Al 
  0.0075912  0.4974444  0.5035394

 Al 
  0.0129202  0.7601282  0.7646478

 Al 
  0.2472303  0.4835664  0.7458319

 Al 
  0.2363311  0.7454779  0.5107260

 Al 
  0.5101072  0.5030927  0.0103695

 Al 
  0.5040295  0.7592966  0.2619759

 Al 
  0.7384090  0.5156416  0.2457737

 Al 
  0.7434706  0.7620662  0.0090874

 Al 
  0.5027585  0.9966388  0.5073548

 Al 
  0.5093411  0.2487575  0.7448839

 Al 
  0.7562856  0.0083164  0.7465187

 Al 
  0.7502091  0.2562881  0.4890958

 Al 
  0.4878088  0.4984035  0.5115267

 Al 
  0.4937652  0.7469841  0.7476919

 Al 
  0.7603695  0.5131219  0.7394040

 Al 
  0.7487476  0.7425028  0.5157282

