32 
charge = 0 
 Al 
  0.0088968  0.0039788  0.9928617

 Al 
  0.9992240  0.2656255  0.2449111

 Al 
  0.2397567  0.9987228  0.2314613

 Al 
  0.2450374  0.2479976  0.9941500

 Al 
  0.4946909  0.9965423  0.9641317

 Al 
  0.5003156  0.2346604  0.2470051

 Al 
  0.7448369  0.9989543  0.2448913

 Al 
  0.7595824  0.2531211  0.0045245

 Al 
  0.0110997  0.5105552  0.0002723

 Al 
  0.9803252  0.7471536  0.2410561

 Al 
  0.2598460  0.4916786  0.2571680

 Al 
  0.2657294  0.7470843  0.0208010

 Al 
  0.9926526  0.9974160  0.4961400

 Al 
  0.9864413  0.2510148  0.7423098

 Al 
  0.2485050  0.9992253  0.7542213

 Al 
  0.2501869  0.2195126  0.5040085

 Al 
  0.0081642  0.4945201  0.5051730

 Al 
  0.0140265  0.7598906  0.7646577

 Al 
  0.2480471  0.4830182  0.7456203

 Al 
  0.2340392  0.7437862  0.5108943

 Al 
  0.5125464  0.5028786  0.0111900

 Al 
  0.5048314  0.7608472  0.2633186

 Al 
  0.7385216  0.5146020  0.2465918

 Al 
  0.7439892  0.7638533  0.0080528

 Al 
  0.5018526  0.9960621  0.5073684

 Al 
  0.5101406  0.2489592  0.7451017

 Al 
  0.7573251  0.0093473  0.7463170

 Al 
  0.7504282  0.2566036  0.4888397

 Al 
  0.4870105  0.4992711  0.5134152

 Al 
  0.4935238  0.7470719  0.7468653

 Al 
  0.7588251  0.5141528  0.7403643

 Al 
  0.7496040  0.7418952  0.5163197

