32 
charge = 0 
 Al 
  0.0087756  0.0024454  0.9930833

 Al 
  0.0007586  0.2683914  0.2419447

 Al 
  0.2339166  0.9973306  0.2294428

 Al 
  0.2438010  0.2501535  0.9971920

 Al 
  0.4929570  0.9990000  0.9594166

 Al 
  0.4981263  0.2312373  0.2470670

 Al 
  0.7465460  0.0013093  0.2446265

 Al 
  0.7629672  0.2560405  0.0009715

 Al 
  0.0128199  0.5114722  0.9984902

 Al 
  0.9795035  0.7484926  0.2415734

 Al 
  0.2593040  0.4909039  0.2573895

 Al 
  0.2670957  0.7459742  0.0232724

 Al 
  0.9925882  0.9974048  0.4921229

 Al 
  0.9859772  0.2492835  0.7399696

 Al 
  0.2471722  0.0025370  0.7580070

 Al 
  0.2472885  0.2150030  0.5033352

 Al 
  0.0091629  0.4878830  0.5087075

 Al 
  0.0160388  0.7588152  0.7643619

 Al 
  0.2500186  0.4821432  0.7456277

 Al 
  0.2290790  0.7402195  0.5106987

 Al 
  0.5177788  0.5022301  0.0123038

 Al 
  0.5062806  0.7643037  0.2663569

 Al 
  0.7392716  0.5115106  0.2490768

 Al 
  0.7451475  0.7678060  0.0046706

 Al 
  0.4998255  0.9946438  0.5074019

 Al 
  0.5119969  0.2498886  0.7457019

 Al 
  0.7594810  0.0112569  0.7457477

 Al 
  0.7507277  0.2572769  0.4883607

 Al 
  0.4857123  0.5011212  0.5173246

 Al 
  0.4930152  0.7468937  0.7450819

 Al 
  0.7549725  0.5158643  0.7436971

 Al 
  0.7518935  0.7411626  0.5169756

