32 
charge = 0 
 Al 
  0.0088535  0.0026620  0.9930263

 Al 
  0.0005396  0.2680338  0.2423531

 Al 
  0.2347322  0.9975298  0.2296470

 Al 
  0.2439508  0.2498131  0.9967526

 Al 
  0.4931451  0.9986127  0.9599475

 Al 
  0.4984568  0.2317113  0.2470756

 Al 
  0.7462712  0.0009257  0.2446513

 Al 
  0.7625080  0.2556136  0.0014987

 Al 
  0.0125996  0.5113596  0.9987624

 Al 
  0.9795406  0.7482810  0.2414373

 Al 
  0.2593993  0.4909992  0.2573635

 Al 
  0.2669311  0.7461772  0.0229692

 Al 
  0.9926031  0.9974197  0.4927207

 Al 
  0.9859871  0.2495273  0.7402888

 Al 
  0.2473937  0.0020692  0.7575170

 Al 
  0.2477117  0.2155834  0.5034627

 Al 
  0.0090503  0.4888211  0.5082236

 Al 
  0.0157987  0.7590119  0.7644312

 Al 
  0.2497327  0.4822385  0.7455770

 Al 
  0.2297597  0.7406985  0.5107779

 Al 
  0.5170685  0.5023353  0.0122110

 Al 
  0.5061061  0.7638236  0.2659311

 Al 
  0.7391194  0.5120093  0.2486671

 Al 
  0.7449866  0.7672541  0.0052374

 Al 
  0.5001089  0.9948530  0.5073920

 Al 
  0.5117309  0.2497116  0.7456104

 Al 
  0.7591963  0.0110304  0.7458418

 Al 
  0.7507054  0.2571865  0.4884226

 Al 
  0.4858485  0.5008737  0.5168123

 Al 
  0.4930882  0.7469469  0.7453208

 Al 
  0.7555418  0.5156787  0.7431241

 Al 
  0.7515358  0.7412084  0.5169422

