32 
charge = 0 
 Al 
  0.0085565  0.0020148  0.9932169

 Al 
  0.0011955  0.2690721  0.2411428

 Al 
  0.2322979  0.9969308  0.2291211

 Al 
  0.2435275  0.2508725  0.9980805

 Al 
  0.4926452  0.9998131  0.9584959

 Al 
  0.4974407  0.2302980  0.2470336

 Al 
  0.7471313  0.0021336  0.2445857

 Al 
  0.7638694  0.2569093  0.9998899

 Al 
  0.0132370  0.5116814  0.9979246

 Al 
  0.9795097  0.7489320  0.2419051

 Al 
  0.2590998  0.4907282  0.2574439

 Al 
  0.2674026  0.7455213  0.0238280

 Al 
  0.9925462  0.9973628  0.4909002

 Al 
  0.9860205  0.2487959  0.7393458

 Al 
  0.2466870  0.0034738  0.7589364

 Al 
  0.2464321  0.2139040  0.5030444

 Al 
  0.0093584  0.4860069  0.5096555

 Al 
  0.0164744  0.7583746  0.7641973

 Al 
  0.2505953  0.4819774  0.7457861

 Al 
  0.2277375  0.7392926  0.5104822

 Al 
  0.5191649  0.5020061  0.0124264

 Al 
  0.5065974  0.7652505  0.2671996

 Al 
  0.7396230  0.5104537  0.2499567

 Al 
  0.7454656  0.7689050  0.0034491

 Al 
  0.4992661  0.9942193  0.5074316

 Al 
  0.5125303  0.2502945  0.7458901

 Al 
  0.7600255  0.0116603  0.7455423

 Al 
  0.7507487  0.2574551  0.4882407

 Al 
  0.4854896  0.5015977  0.5182998

 Al 
  0.4928655  0.7467613  0.7446191

 Al 
  0.7538129  0.5161787  0.7449483

 Al 
  0.7526471  0.7411279  0.5169818

