32 
charge = 0 
 Al 
  0.0082471  0.0015866  0.9933741

 Al 
  0.0016299  0.2697107  0.2403557

 Al 
  0.2306940  0.9965274  0.2289169

 Al 
  0.2432875  0.2516460  0.9989840

 Al 
  0.4924249  0.0006807  0.9577682

 Al 
  0.4967217  0.2293686  0.2469766

 Al 
  0.7477650  0.0030382  0.2445547

 Al 
  0.7647505  0.2578004  0.9987723

 Al 
  0.0136243  0.5118707  0.9973293

 Al 
  0.9796186  0.7493886  0.2423197

 Al 
  0.2588758  0.4905710  0.2574996

 Al 
  0.2676798  0.7449990  0.0243156

 Al 
  0.9924892  0.9972984  0.4896342

 Al 
  0.9861529  0.2483045  0.7387431

 Al 
  0.2461388  0.0044082  0.7597978

 Al 
  0.2455572  0.2128855  0.5027041

 Al 
  0.0095144  0.4841245  0.5105836

 Al 
  0.0168507  0.7578746  0.7639931

 Al 
  0.2511782  0.4818425  0.7460249

 Al 
  0.2264170  0.7383979  0.5101901

 Al 
  0.5205114  0.5017660  0.0124672

 Al 
  0.5068784  0.7661787  0.2680325

 Al 
  0.7400426  0.5093139  0.2509257

 Al 
  0.7457787  0.7700027  0.0021051

 Al 
  0.4987092  0.9937850  0.5074786

 Al 
  0.5130711  0.2507698  0.7460819

 Al 
  0.7605378  0.0119969  0.7453109

 Al 
  0.7507351  0.2576246  0.4881231

 Al 
  0.4853336  0.5020506  0.5192045

 Al 
  0.4927033  0.7466017  0.7441810

 Al 
  0.7526273  0.5164187  0.7463418

 Al 
  0.7534565  0.7411675  0.5169125

