32 
charge = 0 
 Al 
  0.0089092  0.0028798  0.9929781

 Al 
  0.0003205  0.2676650  0.2427652

 Al 
  0.2355527  0.9977291  0.2298797

 Al 
  0.2441092  0.2494839  0.9963145

 Al 
  0.4933531  0.9982377  0.9605255

 Al 
  0.4987810  0.2321902  0.2470769

 Al 
  0.7460064  0.0005594  0.2446810

 Al 
  0.7620415  0.2551903  0.0020197

 Al 
  0.0123707  0.5112420  0.9990285

 Al 
  0.9796025  0.7480756  0.2413222

 Al 
  0.2594884  0.4910995  0.2573350

 Al 
  0.2667566  0.7463640  0.0226499

 Al 
  0.9926167  0.9974296  0.4933097

 Al 
  0.9860168  0.2497723  0.7406143

 Al 
  0.2476041  0.0015989  0.7570096

 Al 
  0.2481300  0.2161848  0.5035790

 Al 
  0.0089278  0.4897616  0.5077335

 Al 
  0.0155425  0.7591951  0.7644919

 Al 
  0.2494480  0.4823425  0.7455435

 Al 
  0.2304490  0.7411861  0.5108410

 Al 
  0.5163470  0.5024355  0.0120959

 Al 
  0.5059230  0.7633397  0.2655029

 Al 
  0.7389832  0.5124895  0.2482773

 Al 
  0.7448245  0.7666997  0.0057769

 Al 
  0.5003935  0.9950609  0.5073845

 Al 
  0.5114660  0.2495495  0.7455213

 Al 
  0.7589043  0.0107878  0.7459297

 Al 
  0.7506757  0.2570937  0.4884870

 Al 
  0.4860019  0.5006200  0.5162838

 Al 
  0.4931600  0.7469927  0.7455671

 Al 
  0.7561049  0.5154745  0.7425833

 Al 
  0.7511905  0.7412739  0.5168890

