32 
charge = 0 
 Al 
  0.0036941  0.9989345  0.9946451

 Al 
  0.0042312  0.2727811  0.2356133

 Al 
  0.2206995  0.9938233  0.2307126

 Al 
  0.2426922  0.2580343  0.0051940

 Al 
  0.4934756  0.0077273  0.9579662

 Al 
  0.4909126  0.2234382  0.2459977

 Al 
  0.7530976  0.0113113  0.2443864

 Al 
  0.7702292  0.2641961  0.9904757

 Al 
  0.0153284  0.5128150  0.9926761

 Al 
  0.9826828  0.7522189  0.2468021

 Al 
  0.2570665  0.4900809  0.2582347

 Al 
  0.2690783  0.7397951  0.0255891

 Al 
  0.9914262  0.9963962  0.4804527

 Al 
  0.9896874  0.2447626  0.7356393

 Al 
  0.2406094  0.0104871  0.7636788

 Al 
  0.2394857  0.2084550  0.4990124

 Al 
  0.0095218  0.4716660  0.5160660

 Al 
  0.0178271  0.7531100  0.7616875

 Al 
  0.2550394  0.4816309  0.7500111

 Al 
  0.2181946  0.7333164  0.5061012

 Al 
  0.5282511  0.4998725  0.0111207

 Al 
  0.5079848  0.7715559  0.2729098

 Al 
  0.7445572  0.4998960  0.2596641

 Al 
  0.7477142  0.7773043  0.9903223

 Al 
  0.4951376  0.9910079  0.5086877

 Al 
  0.5167727  0.2556878  0.7473083

 Al 
  0.7629041  0.0123892  0.7427949

 Al 
  0.7494716  0.2582966  0.4875130

 Al 
  0.4861999  0.5042052  0.5227229

 Al 
  0.4910846  0.7454012  0.7423927

 Al 
  0.7444904  0.5162925  0.7589476

 Al 
  0.7604525  0.7431142  0.5146725

