32 
charge = 0 
 Al 
  0.0059849  0.9999059  0.9941513

 Al 
  0.0033130  0.2718516  0.2373311

 Al 
  0.2243886  0.9948703  0.2293624

 Al 
  0.2427009  0.2553252  0.0027672

 Al 
  0.4925375  0.0047436  0.9568400

 Al 
  0.4933889  0.2256819  0.2464952

 Al 
  0.7508168  0.0076234  0.2444730

 Al 
  0.7681674  0.2616380  0.9938629

 Al 
  0.0148644  0.5124981  0.9946166

 Al 
  0.9810579  0.7512413  0.2447639

 Al 
  0.2578115  0.4901490  0.2578350

 Al 
  0.2685993  0.7421576  0.0255359

 Al 
  0.9920115  0.9968281  0.4841221

 Al 
  0.9877358  0.2462316  0.7366071

 Al 
  0.2431550  0.0081729  0.7625551

 Al 
  0.2418643  0.2096542  0.5007475

 Al 
  0.0097248  0.4764430  0.5141070

 Al 
  0.0177640  0.7552398  0.7627754

 Al 
  0.2535667  0.4815826  0.7479382

 Al 
  0.2212650  0.7351121  0.5081481

 Al 
  0.5255223  0.5006448  0.0119041

 Al 
  0.5076816  0.7696797  0.2712081

 Al 
  0.7424583  0.5038872  0.2558116

 Al 
  0.7470001  0.7744765  0.9954433

 Al 
  0.4964989  0.9920128  0.5079786

 Al 
  0.5153235  0.2534404  0.7468640

 Al 
  0.7622259  0.0126231  0.7440114

 Al 
  0.7502339  0.2581741  0.4876887

 Al 
  0.4854500  0.5035766  0.5219593

 Al 
  0.4918568  0.7458257  0.7427924

 Al 
  0.7476338  0.5166638  0.7534268

 Al 
  0.7573944  0.7420474  0.5158779

