32 
charge = 0 
 Al 
  0.0002587  0.9979815  0.9950733

 Al 
  0.0050072  0.2732971  0.2339538

 Al 
  0.2170474  0.9926501  0.2332521

 Al 
  0.2431142  0.2613324  0.0078301

 Al 
  0.4953567  0.0114747  0.9609450

 Al 
  0.4877209  0.2210150  0.2452960

 Al 
  0.7559292  0.0162777  0.2441327

 Al 
  0.7725447  0.2670808  0.9864128

 Al 
  0.0154126  0.5131281  0.9902839

 Al 
  0.9850490  0.7528650  0.2493540

 Al 
  0.2562274  0.4902332  0.2590206

 Al 
  0.2695993  0.7366653  0.0248032

 Al 
  0.9903718  0.9958740  0.4763749

 Al 
  0.9928741  0.2428110  0.7351592

 Al 
  0.2371504  0.0129647  0.7643768

 Al 
  0.2368831  0.2080640  0.4965385

 Al 
  0.0089773  0.4665747  0.5178890

 Al 
  0.0173791  0.7503168  0.7601480

 Al 
  0.2566234  0.4818870  0.7532635

 Al 
  0.2149671  0.7315752  0.5030085

 Al 
  0.5307472  0.4990458  0.0101332

 Al 
  0.5082248  0.7732055  0.2743119

 Al 
  0.7474556  0.4949891  0.2646775

 Al 
  0.7484246  0.7804428  0.9837731

 Al 
  0.4936179  0.9901738  0.5100601

 Al 
  0.5183753  0.2586357  0.7477006

 Al 
  0.7632196  0.0115403  0.7408854

 Al 
  0.7480706  0.2579934  0.4875811

 Al 
  0.4877939  0.5045023  0.5223590

 Al 
  0.4898693  0.7452069  0.7426291

 Al 
  0.7412356  0.5154869  0.7659163

 Al 
  0.7644721  0.7447107  0.5128583

