32 
charge = 0 
 Al 
  0.0020432  0.9984196  0.9948913

 Al 
  0.0046743  0.2731300  0.2347161

 Al 
  0.2187305  0.9932182  0.2318808

 Al 
  0.2428419  0.2597074  0.0065752

 Al 
  0.4943320  0.0096022  0.9592570

 Al 
  0.4893285  0.2221734  0.2456512

 Al 
  0.7545270  0.0137530  0.2442874

 Al 
  0.7714160  0.2656935  0.9884152

 Al 
  0.0154448  0.5129820  0.9914707

 Al 
  0.9838362  0.7526348  0.2480979

 Al 
  0.2566296  0.4901243  0.2585825

 Al 
  0.2693443  0.7382407  0.0253131

 Al 
  0.9909460  0.9961240  0.4783241

 Al 
  0.9911873  0.2438085  0.7352891

 Al 
  0.2389040  0.0117890  0.7641156

 Al 
  0.2381244  0.2081073  0.4978132

 Al 
  0.0092854  0.4689854  0.5170685

 Al 
  0.0176712  0.7517227  0.7609413

 Al 
  0.2558648  0.4817323  0.7515556

 Al 
  0.2164930  0.7323783  0.5046211

 Al 
  0.5296334  0.4994332  0.0106034

 Al 
  0.5081172  0.7724791  0.2737191

 Al 
  0.7459754  0.4974172  0.2621578

 Al 
  0.7480966  0.7789305  0.9870501

 Al 
  0.4943555  0.9905252  0.5093015

 Al 
  0.5176080  0.2571581  0.7475298

 Al 
  0.7631343  0.0120316  0.7418977

 Al 
  0.7488342  0.2582187  0.4874944

 Al 
  0.4869103  0.5044193  0.5227229

 Al 
  0.4905153  0.7452490  0.7424051

 Al 
  0.7427528  0.5159225  0.7624548

 Al 
  0.7624425  0.7438877  0.5137963

