32 
charge = 0 
 Al 
  0.9930201  0.9972328  0.9950386

 Al 
  0.0051334  0.2721016  0.2323932

 Al 
  0.2140649  0.9908458  0.2394003

 Al 
  0.2453690  0.2663296  0.0108584

 Al 
  0.5002760  0.0182763  0.9703888

 Al 
  0.4816259  0.2178741  0.2443196

 Al 
  0.7602470  0.0259987  0.2424905

 Al 
  0.7763415  0.2704705  0.9799923

 Al 
  0.0135847  0.5134424  0.9864908

 Al 
  0.9894622  0.7512747  0.2525840

 Al 
  0.2552918  0.4912801  0.2616826

 Al 
  0.2705312  0.7311383  0.0206945

 Al 
  0.9873806  0.9955794  0.4719086

 Al 
  0.0003787  0.2385563  0.7371269

 Al 
  0.2310368  0.0158061  0.7640513

 Al 
  0.2338609  0.2108695  0.4913457

 Al 
  0.0072274  0.4608769  0.5190721

 Al 
  0.0152344  0.7453369  0.7566680

 Al 
  0.2589600  0.4830689  0.7605416

 Al 
  0.2114041  0.7297733  0.4962947

 Al 
  0.5316816  0.4983008  0.0100193

 Al 
  0.5085478  0.7739493  0.2741040

 Al 
  0.7532573  0.4871492  0.2735459

 Al 
  0.7490000  0.7847656  0.9723826

 Al 
  0.4912467  0.9903718  0.5144337

 Al 
  0.5202193  0.2635030  0.7478380

 Al 
  0.7621368  0.0089513  0.7358670

 Al 
  0.7439867  0.2553351  0.4896206

 Al 
  0.4925313  0.5036966  0.5175944

 Al 
  0.4865774  0.7463046  0.7454507

 Al 
  0.7385377  0.5138929  0.7766187

 Al 
  0.7718492  0.7476474  0.5091802

