32 
charge = 0 
 Al 
  0.9935907  0.9972303  0.9950869

 Al 
  0.0051879  0.2723145  0.2324390

 Al 
  0.2140723  0.9909720  0.2388929

 Al 
  0.2451129  0.2660264  0.0107408

 Al 
  0.4998391  0.0177553  0.9694743

 Al 
  0.4821048  0.2180362  0.2443493

 Al 
  0.7599958  0.0252351  0.2427108

 Al 
  0.7760668  0.2703505  0.9804106

 Al 
  0.0138471  0.5134337  0.9867296

 Al 
  0.9891503  0.7515804  0.2524702

 Al 
  0.2553228  0.4911589  0.2614054

 Al 
  0.2704581  0.7315281  0.0211549

 Al 
  0.9876627  0.9955398  0.4720385

 Al 
  0.9997364  0.2389213  0.7368101

 Al 
  0.2314489  0.0156997  0.7641429

 Al 
  0.2339785  0.2104562  0.4917702

 Al 
  0.0074031  0.4610947  0.5190968

 Al 
  0.0154572  0.7456970  0.7569799

 Al 
  0.2587966  0.4829291  0.7599438

 Al 
  0.2115267  0.7298438  0.4968380

 Al 
  0.5318388  0.4983120  0.0098733

 Al 
  0.5085206  0.7740149  0.2742810

 Al 
  0.7527944  0.4876590  0.2729135

 Al 
  0.7490025  0.7845206  0.9731882

 Al 
  0.4914150  0.9902567  0.5139919

 Al 
  0.5201562  0.2631887  0.7478553

 Al 
  0.7623113  0.0091765  0.7363460

 Al 
  0.7443889  0.2556742  0.4893186

 Al 
  0.4920771  0.5038204  0.5181736

 Al 
  0.4868979  0.7461388  0.7451116

 Al 
  0.7385290  0.5139857  0.7759938

 Al 
  0.7713084  0.7474519  0.5094686

