32 
charge = 0 
 Al 
  0.9953530  0.9972935  0.9951846

 Al 
  0.0052893  0.2728268  0.2326605

 Al 
  0.2143582  0.9913692  0.2373459

 Al 
  0.2444174  0.2649894  0.0102384

 Al 
  0.4985533  0.0161490  0.9668606

 Al 
  0.4835714  0.2186327  0.2445089

 Al 
  0.7591122  0.0228924  0.2432677

 Al 
  0.7752017  0.2697998  0.9817942

 Al 
  0.0145092  0.5133867  0.9875377

 Al 
  0.9881429  0.7522982  0.2519368

 Al 
  0.2554663  0.4908284  0.2606344

 Al 
  0.2702341  0.7327806  0.0224085

 Al 
  0.9884783  0.9955039  0.4727068

 Al 
  0.9978219  0.2400079  0.7360254

 Al 
  0.2328103  0.0152294  0.7643570

 Al 
  0.2344822  0.2094154  0.4930548

 Al 
  0.0078944  0.4620266  0.5190436

 Al 
  0.0160858  0.7468393  0.7578845

 Al 
  0.2582818  0.4825615  0.7581283

 Al 
  0.2120910  0.7301359  0.4984976

 Al 
  0.5320467  0.4983974  0.0096307

 Al 
  0.5084439  0.7740780  0.2746386

 Al 
  0.7513836  0.4893508  0.2708925

 Al 
  0.7489530  0.7836567  0.9757685

 Al 
  0.4919435  0.9900178  0.5127506

 Al 
  0.5198616  0.2621393  0.7478813

 Al 
  0.7627432  0.0098559  0.7377110

 Al 
  0.7455225  0.2565578  0.4885723

 Al 
  0.4907789  0.5041372  0.5197218

 Al 
  0.4878038  0.7457180  0.7442008

 Al 
  0.7387679  0.5143223  0.7738008

 Al 
  0.7695980  0.7467997  0.5103547

