32 
charge = 0 
 Al 
  0.9941711  0.9972390  0.9951265

 Al 
  0.0052324  0.2725051  0.2324984

 Al 
  0.2141243  0.9911007  0.2383805

 Al 
  0.2448691  0.2657022  0.0105985

 Al 
  0.4994072  0.0172269  0.9685808

 Al 
  0.4825875  0.2182169  0.2443914

 Al 
  0.7597223  0.0244629  0.2429137

 Al 
  0.7757859  0.2701983  0.9808500

 Al 
  0.0140884  0.5134214  0.9869846

 Al 
  0.9888260  0.7518526  0.2523229

 Al 
  0.2553611  0.4910425  0.2611381

 Al 
  0.2703851  0.7319328  0.0215942

 Al 
  0.9879400  0.9955151  0.4722155

 Al 
  0.9990966  0.2392852  0.7365205

 Al 
  0.2318833  0.0155673  0.7642245

 Al 
  0.2341221  0.2100775  0.4921959

 Al 
  0.0075714  0.4613583  0.5191005

 Al 
  0.0156737  0.7460683  0.7572868

 Al 
  0.2586295  0.4827991  0.7593424

 Al 
  0.2116814  0.7299280  0.4973863

 Al 
  0.5319526  0.4983305  0.0097607

 Al 
  0.5084934  0.7740582  0.2744295

 Al 
  0.7523291  0.4881961  0.2722600

 Al 
  0.7489963  0.7842533  0.9740211

 Al 
  0.4915858  0.9901601  0.5135637

 Al 
  0.5200757  0.2628570  0.7478689

 Al 
  0.7624709  0.0094030  0.7368125

 Al 
  0.7447775  0.2559910  0.4890439

 Al 
  0.4916341  0.5039354  0.5187218

 Al 
  0.4872086  0.7459853  0.7447899

 Al 
  0.7385649  0.5140884  0.7753143

 Al 
  0.7707539  0.7472452  0.5097607

