32 
charge = 0 
 Al 
  0.9913618  0.9973108  0.9948480

 Al 
  0.0049168  0.2713368  0.2323375

 Al 
  0.2143013  0.9904819  0.2408953

 Al 
  0.2462143  0.2671093  0.0110638

 Al 
  0.5016113  0.0198084  0.9732736

 Al 
  0.4802176  0.2175016  0.2443171

 Al 
  0.7608633  0.0282449  0.2417120

 Al 
  0.7771212  0.2706314  0.9788711

 Al 
  0.0126702  0.5134511  0.9858658

 Al 
  0.9903284  0.7501497  0.2527189

 Al 
  0.2552522  0.4916848  0.2625761

 Al 
  0.2707366  0.7300505  0.0191797

 Al 
  0.9865044  0.9957873  0.4717960

 Al 
  0.0023142  0.2374585  0.7382432

 Al 
  0.2299379  0.0159658  0.7637246

 Al 
  0.2336555  0.2123162  0.4900859

 Al 
  0.0066606  0.4604958  0.5188815

 Al 
  0.0145240  0.7443122  0.7556915

 Al 
  0.2594377  0.4835454  0.7623051

 Al 
  0.2112433  0.7296446  0.4947008

 Al 
  0.5309403  0.4983256  0.0106690

 Al 
  0.5086407  0.7736263  0.2733949

 Al 
  0.7546248  0.4857767  0.2753230

 Al 
  0.7489258  0.7853782  0.9701265

 Al 
  0.4907616  0.9908198  0.5158482

 Al 
  0.5202935  0.2643372  0.7477650

 Al 
  0.7615180  0.0082793  0.7343485

 Al 
  0.7427033  0.2541693  0.4907084

 Al 
  0.4939619  0.5032758  0.5156638

 Al 
  0.4855539  0.7468813  0.7465720

 Al 
  0.7388260  0.5136887  0.7781620

 Al 
  0.7733776  0.7481573  0.5083276

