32 
charge = 0 
 Al 
  0.9879028  0.9979135  0.9941674

 Al 
  0.0042065  0.2687441  0.2326296

 Al 
  0.2163829  0.9896280  0.2441550

 Al 
  0.2486189  0.2681390  0.0106715

 Al 
  0.5049168  0.0232662  0.9808759

 Al 
  0.4770902  0.2173469  0.2449718

 Al 
  0.7614091  0.0332669  0.2391057

 Al 
  0.7786644  0.2697515  0.9770395

 Al 
  0.0097470  0.5133273  0.9850304

 Al 
  0.9919101  0.7462576  0.2516633

 Al 
  0.2554378  0.4928320  0.2649955

 Al 
  0.2710844  0.7280370  0.0148297

 Al 
  0.9843523  0.9968752  0.4732105

 Al 
  0.0068994  0.2349785  0.7418160

 Al 
  0.2283278  0.0152616  0.7626702

 Al 
  0.2340614  0.2170091  0.4872482

 Al 
  0.0050468  0.4611727  0.5178469

 Al 
  0.0126640  0.7422442  0.7530815

 Al 
  0.2605329  0.4850688  0.7661502

 Al 
  0.2121603  0.7298451  0.4912715

 Al 
  0.5276150  0.4986795  0.0135674

 Al 
  0.5089637  0.7721610  0.2706735

 Al 
  0.7577372  0.4834798  0.2787523

 Al 
  0.7483243  0.7860477  0.9658346

 Al 
  0.4896453  0.9924546  0.5196636

 Al 
  0.5197094  0.2656453  0.7475335

 Al 
  0.7594822  0.0067831  0.7302832

 Al 
  0.7391986  0.2505445  0.4944124

 Al 
  0.4977761  0.5020519  0.5100540

 Al 
  0.4827645  0.7486634  0.7497612

 Al 
  0.7410438  0.5137184  0.7796805

 Al 
  0.7763242  0.7488107  0.5063574

