32 
charge = 0 
 Al 
  0.9852408  0.9991869  0.9931340

 Al 
  0.0034565  0.2644807  0.2335491

 Al 
  0.2210806  0.9884634  0.2471388

 Al 
  0.2517734  0.2677924  0.0088436

 Al 
  0.5088535  0.0267932  0.9904745

 Al 
  0.4741758  0.2186365  0.2472699

 Al 
  0.7602755  0.0382196  0.2349475

 Al 
  0.7795914  0.2666390  0.9764380

 Al 
  0.0052980  0.5128558  0.9854289

 Al 
  0.9929063  0.7400079  0.2479333

 Al 
  0.2559663  0.4943505  0.2679013

 Al 
  0.2708752  0.7269851  0.0088993

 Al 
  0.9821791  0.9992042  0.4774157

 Al 
  0.0118472  0.2329427  0.7471029

 Al 
  0.2286632  0.0122618  0.7610539

 Al 
  0.2359586  0.2244493  0.4846270

 Al 
  0.0027078  0.4644226  0.5160499

 Al 
  0.0104500  0.7405920  0.7495495

 Al 
  0.2617482  0.4875377  0.7693938

 Al 
  0.2155438  0.7310740  0.4883496

 Al 
  0.5216091  0.4994579  0.0190671

 Al 
  0.5095948  0.7695399  0.2659423

 Al 
  0.7609475  0.4824068  0.2811222

 Al 
  0.7468294  0.7853819  0.9630761

 Al 
  0.4882444  0.9950807  0.5244270

 Al 
  0.5175424  0.2660400  0.7474469

 Al 
  0.7562460  0.0052807  0.7251955

 Al 
  0.7346109  0.2452218  0.5003329

 Al 
  0.5027721  0.5004715  0.5023477

 Al 
  0.4791495  0.7512351  0.7539169

 Al 
  0.7457440  0.5146577  0.7775556

 Al 
  0.7781174  0.7483318  0.5040703

