32 
charge = 0 
 Al 
  0.9849141  0.9995409  0.9928791

 Al 
  0.0033587  0.2633050  0.2338362

 Al 
  0.2224791  0.9881380  0.2476796

 Al 
  0.2525123  0.2674472  0.0082335

 Al 
  0.5097656  0.0274974  0.9927466

 Al 
  0.4736709  0.2192107  0.2481090

 Al 
  0.7597112  0.0391812  0.2338622

 Al 
  0.7796025  0.2656341  0.9765383

 Al 
  0.0041421  0.5126813  0.9857779

 Al 
  0.9930214  0.7383471  0.2466809

 Al 
  0.2561049  0.4947193  0.2685152

 Al 
  0.2706512  0.7269974  0.0074625

 Al 
  0.9818029  0.9999121  0.4787176

 Al 
  0.0128942  0.2326964  0.7484357

 Al 
  0.2291483  0.0111752  0.7606183

 Al 
  0.2366009  0.2264653  0.4841976

 Al 
  0.0020927  0.4655277  0.5155970

 Al 
  0.0099673  0.7403408  0.7486560

 Al 
  0.2620130  0.4882196  0.7698592

 Al 
  0.2167009  0.7315418  0.4878917

 Al 
  0.5199854  0.4996659  0.0206240

 Al 
  0.5097916  0.7688270  0.2646329

 Al 
  0.7616046  0.4823796  0.2813809

 Al 
  0.7463517  0.7849859  0.9628422

 Al 
  0.4878719  0.9957626  0.5255037

 Al 
  0.5167727  0.2659782  0.7475113

 Al 
  0.7553723  0.0049540  0.7240520

 Al 
  0.7335194  0.2438877  0.5018749

 Al 
  0.5040010  0.5001151  0.5004542

 Al 
  0.4783043  0.7518848  0.7548772

 Al 
  0.7470645  0.5149894  0.7764442

 Al 
  0.7782078  0.7479877  0.5035085

