32 
charge = 0 
 Al 
  0.9849698  0.0006114  0.9921514

 Al 
  0.0034639  0.2593436  0.2348795

 Al 
  0.2273526  0.9869846  0.2488095

 Al 
  0.2545926  0.2656057  0.0060245

 Al 
  0.5123620  0.0291359  0.9993552

 Al 
  0.4728194  0.2218133  0.2515915

 Al 
  0.7571927  0.0413074  0.2305901

 Al 
  0.7788265  0.2620984  0.9774479

 Al 
  0.0005012  0.5119610  0.9876182

 Al 
  0.9931142  0.7330454  0.2420091

 Al 
  0.2564428  0.4958368  0.2699297

 Al 
  0.2692193  0.7279256  0.0033092

 Al 
  0.9812720  0.0024578  0.4832187

 Al 
  0.0156218  0.2328202  0.7524429

 Al 
  0.2318128  0.0068177  0.7591443

 Al 
  0.2389882  0.2331221  0.4836741

 Al 
  0.0000903  0.4696958  0.5142790

 Al 
  0.0087298  0.7400067  0.7458616

 Al 
  0.2627098  0.4905153  0.7701710

 Al 
  0.2211722  0.7335194  0.4872568

 Al 
  0.5148842  0.5002549  0.0257982

 Al 
  0.5105255  0.7665289  0.2602817

 Al 
  0.7632333  0.4828276  0.2811866

 Al 
  0.7445968  0.7830813  0.9634399

 Al 
  0.4865242  0.9978516  0.5283130

 Al 
  0.5136615  0.2654893  0.7481338

 Al 
  0.7524974  0.0039317  0.7211636

 Al 
  0.7304341  0.2399671  0.5065467

 Al 
  0.5077397  0.4991919  0.4948035

 Al 
  0.4760074  0.7538723  0.7574786

 Al 
  0.7512623  0.5161118  0.7714519

 Al 
  0.7773811  0.7462675  0.5016373

