32 
charge = 0 
 Al 
  0.9857470  0.0009987  0.9918878

 Al 
  0.0038426  0.2573078  0.2354772

 Al 
  0.2299243  0.9863509  0.2489877

 Al 
  0.2553945  0.2642171  0.0048500

 Al 
  0.5133533  0.0295072  0.0020667

 Al 
  0.4729345  0.2236065  0.2538117

 Al 
  0.7555616  0.0416539  0.2292882

 Al 
  0.7778452  0.2603237  0.9781941

 Al 
  0.9988157  0.5114858  0.9889708

 Al 
  0.9930362  0.7305901  0.2394089

 Al 
  0.2564799  0.4963517  0.2701698

 Al 
  0.2679459  0.7289936  0.0016856

 Al 
  0.9815182  0.0038451  0.4854908

 Al 
  0.0165487  0.2335045  0.7541260

 Al 
  0.2337768  0.0041780  0.7583746

 Al 
  0.2403111  0.2364400  0.4840701

 Al 
  0.9991201  0.4720682  0.5137530

 Al 
  0.0083498  0.7401478  0.7445857

 Al 
  0.2629325  0.4916836  0.7695040

 Al 
  0.2238243  0.7348052  0.4874746

 Al 
  0.5125984  0.5004492  0.0283216

 Al 
  0.5109487  0.7654448  0.2581122

 Al 
  0.7637147  0.4833115  0.2803723

 Al 
  0.7436464  0.7817286  0.9646169

 Al 
  0.4857148  0.9987525  0.5291421

 Al 
  0.5117098  0.2651441  0.7487810

 Al 
  0.7510866  0.0033575  0.7204408

 Al 
  0.7292993  0.2384375  0.5084810

 Al 
  0.5093844  0.4989208  0.4924212

 Al 
  0.4752574  0.7547423  0.7583548

 Al 
  0.7531409  0.5165809  0.7681748

 Al 
  0.7762388  0.7450733  0.5006039

