32 
charge = 0 
 Al 
  0.9847718  0.0003490  0.9923259

 Al 
  0.0033600  0.2604289  0.2345812

 Al 
  0.2259975  0.9873113  0.2486028

 Al 
  0.2540877  0.2662170  0.0066457

 Al 
  0.5117284  0.0288030  0.9977093

 Al 
  0.4729184  0.2209915  0.2505322

 Al 
  0.7579724  0.0409014  0.2314093

 Al 
  0.7791743  0.2630724  0.9771212

 Al 
  0.0014554  0.5121801  0.9870105

 Al 
  0.9931266  0.7344426  0.2433481

 Al 
  0.2563772  0.4955473  0.2696537

 Al 
  0.2697317  0.7275296  0.0043290

 Al 
  0.9812955  0.0017375  0.4819848

 Al 
  0.0149943  0.2326345  0.7514306

 Al 
  0.2309292  0.0081172  0.7595503

 Al 
  0.2383050  0.2313202  0.4836642

 Al 
  0.0006262  0.4684929  0.5146045

 Al 
  0.0090057  0.7400215  0.7465918

 Al 
  0.2625501  0.4898879  0.7702861

 Al 
  0.2198604  0.7329130  0.4872927

 Al 
  0.5162096  0.5001176  0.0244035

 Al 
  0.5103126  0.7671378  0.2614598

 Al 
  0.7628768  0.4826333  0.2814093

 Al 
  0.7450955  0.7836939  0.9630625

 Al 
  0.4869165  0.9973170  0.5276830

 Al 
  0.5145983  0.2656552  0.7478900

 Al 
  0.7532721  0.0042127  0.7217848

 Al 
  0.7311779  0.2409361  0.5053673

 Al 
  0.5067794  0.4993985  0.4962316

 Al 
  0.4765408  0.7533625  0.7568722

 Al 
  0.7501683  0.5158185  0.7730026

 Al 
  0.7777845  0.7468219  0.5021583

