32 
charge = 0 
 Al 
  0.9852978  0.0008292  0.9920053

 Al 
  0.0036248  0.2583040  0.2351777

 Al 
  0.2286619  0.9866640  0.2489357

 Al 
  0.2550270  0.2649374  0.0054255

 Al 
  0.5129041  0.0293686  0.0008032

 Al 
  0.4728268  0.2226858  0.2526867

 Al 
  0.7563858  0.0415549  0.2298822

 Al 
  0.7783810  0.2611801  0.9778093

 Al 
  0.9996225  0.5117296  0.9882741

 Al 
  0.9930820  0.7317608  0.2406923

 Al 
  0.2564774  0.4961029  0.2701017

 Al 
  0.2686241  0.7284169  0.0024293

 Al 
  0.9813475  0.0031607  0.4843894

 Al 
  0.0161366  0.2331122  0.7533402

 Al 
  0.2327669  0.0055022  0.7587520

 Al 
  0.2396577  0.2348275  0.4838102

 Al 
  0.9995879  0.4708901  0.5139968

 Al 
  0.0085120  0.7400500  0.7451933

 Al 
  0.2628360  0.4911131  0.7699074

 Al 
  0.2224952  0.7341505  0.4873199

 Al 
  0.5136813  0.5003663  0.0271051

 Al 
  0.5107383  0.7659646  0.2591654

 Al 
  0.7635105  0.4830578  0.2808388

 Al 
  0.7441129  0.7824266  0.9639622

 Al 
  0.4861244  0.9983293  0.5287981

 Al 
  0.5126974  0.2653161  0.7484308

 Al 
  0.7517697  0.0036496  0.7207156

 Al 
  0.7298092  0.2391342  0.5075850

 Al 
  0.5086060  0.4990335  0.4935362

 Al 
  0.4755792  0.7543327  0.7579711

 Al 
  0.7522536  0.5163680  0.7698381

 Al 
  0.7768625  0.7456809  0.5011212

