32 
charge = 0 
 Al 
  0.9869796  0.0011794  0.9917393

 Al 
  0.0044379  0.2554255  0.2360886

 Al 
  0.2323276  0.9857420  0.2489023

 Al 
  0.2559527  0.2626269  0.0037684

 Al 
  0.5139795  0.0295320  0.0040901

 Al 
  0.4734283  0.2255953  0.2561457

 Al 
  0.7538909  0.0414262  0.2284478

 Al 
  0.7765024  0.2588065  0.9790072

 Al 
  0.9973974  0.5109438  0.9904584

 Al 
  0.9929236  0.7285827  0.2369524

 Al 
  0.2563809  0.4968120  0.2700163

 Al 
  0.2663358  0.7303958  0.0005705

 Al 
  0.9821296  0.0051582  0.4874994

 Al 
  0.0171130  0.2345602  0.7553846

 Al 
  0.2359252  0.0015247  0.7576580

 Al 
  0.2415586  0.2394275  0.4849574

 Al 
  0.9982860  0.4743825  0.5133620

 Al 
  0.0081654  0.7404906  0.7435362

 Al 
  0.2630328  0.4927504  0.7683159

 Al 
  0.2265123  0.7361839  0.4880154

 Al 
  0.5107594  0.5005309  0.0304948

 Al 
  0.5113670  0.7645216  0.2561692

 Al 
  0.7639288  0.4838609  0.2790914

 Al 
  0.7427776  0.7802040  0.9662900

 Al 
  0.4848522  0.9994456  0.5294181

 Al 
  0.5096567  0.2648161  0.7496461

 Al 
  0.7498416  0.0027140  0.7204012

 Al 
  0.7286100  0.2374425  0.5098634

 Al 
  0.5106925  0.4988268  0.4906180

 Al 
  0.4749270  0.7554168  0.7588238

 Al 
  0.7546198  0.5168531  0.7647220

 Al 
  0.7747030  0.7438233  0.4995421

