32 
charge = 0 
 Al 
  0.9877531  0.0011905  0.9917059

 Al 
  0.0048129  0.2545258  0.2364066

 Al 
  0.2334860  0.9854463  0.2487785

 Al 
  0.2561532  0.2617544  0.0032597

 Al 
  0.5141552  0.0294305  0.0048797

 Al 
  0.4738082  0.2266682  0.2573561

 Al 
  0.7530518  0.0411069  0.2282040

 Al 
  0.7756980  0.2581444  0.9794268

 Al 
  0.9967712  0.5106331  0.9912393

 Al 
  0.9928655  0.7277424  0.2357816

 Al 
  0.2562744  0.4970336  0.2697985

 Al 
  0.2653990  0.7312150  0.0001807

 Al 
  0.9825665  0.0057906  0.4884177

 Al 
  0.0172826  0.2352148  0.7558735

 Al 
  0.2370551  0.0001992  0.7573140

 Al 
  0.2421576  0.2408247  0.4855873

 Al 
  0.9979172  0.4755284  0.5132036

 Al 
  0.0081320  0.7407344  0.7430882

 Al 
  0.2630390  0.4932540  0.7675462

 Al 
  0.2278848  0.7369115  0.4883867

 Al 
  0.5099847  0.5005309  0.0314564

 Al 
  0.5115737  0.7641107  0.2552658

 Al 
  0.7639523  0.4841456  0.2782746

 Al 
  0.7423779  0.7793674  0.9673011

 Al 
  0.4843968  0.9997228  0.5293562

 Al 
  0.5085862  0.2646626  0.7501609

 Al 
  0.7492723  0.0023489  0.7206326

 Al 
  0.7284206  0.2371343  0.5103646

 Al 
  0.5112346  0.4988429  0.4899126

 Al 
  0.4749196  0.7556829  0.7589228

 Al 
  0.7552213  0.5169063  0.7629325

 Al 
  0.7737996  0.7431946  0.4989852

