32 
charge = 0 
 Al 
  0.9863088  0.0011150  0.9917999

 Al 
  0.0041137  0.2563512  0.2357792

 Al 
  0.2311433  0.9860428  0.2489741

 Al 
  0.2557015  0.2634474  0.0042981

 Al 
  0.5137110  0.0295592  0.0031570

 Al 
  0.4731362  0.2245755  0.2549651

 Al 
  0.7547287  0.0416093  0.2288092

 Al 
  0.7772177  0.2595317  0.9785951

 Al 
  0.9980768  0.5112259  0.9897010

 Al 
  0.9929818  0.7295320  0.2381627

 Al 
  0.2564489  0.4965868  0.2701413

 Al 
  0.2671848  0.7296545  0.0010693

 Al 
  0.9817794  0.0045109  0.4865267

 Al 
  0.0168717  0.2339884  0.7548042

 Al 
  0.2348312  0.0028513  0.7580107

 Al 
  0.2409448  0.2379697  0.4844525

 Al 
  0.9986857  0.4732315  0.5135426

 Al 
  0.0082360  0.7402950  0.7440349

 Al 
  0.2629981  0.4922281  0.7689706

 Al 
  0.2251609  0.7354822  0.4877085

 Al 
  0.5116269  0.5005037  0.0294503

 Al 
  0.5111579  0.7649646  0.2571160

 Al 
  0.7638520  0.4835813  0.2797906

 Al 
  0.7432008  0.7809898  0.9653940

 Al 
  0.4852916  0.9991238  0.5293476

 Al 
  0.5106975  0.2649770  0.7491857

 Al 
  0.7504443  0.0030481  0.7203369

 Al 
  0.7289008  0.2378744  0.5092384

 Al 
  0.5100775  0.4988528  0.4914522

 Al 
  0.4750396  0.7551025  0.7586369

 Al 
  0.7539280  0.5167430  0.7664682

 Al 
  0.7755173  0.7444508  0.5000792

