32 
charge = 0 
 Al 
  0.9956982  0.9998181  0.9921576

 Al 
  0.0087013  0.2485360  0.2391268

 Al 
  0.2413296  0.9837025  0.2468294

 Al 
  0.2564390  0.2542473  0.0001943

 Al 
  0.5126070  0.0269318  0.0069650

 Al 
  0.4787671  0.2358955  0.2663965

 Al 
  0.7475818  0.0351431  0.2299998

 Al 
  0.7676217  0.2552200  0.9824167

 Al 
  0.9935412  0.5071395  0.9967081

 Al 
  0.9926996  0.7250545  0.2290208

 Al 
  0.2543216  0.4987154  0.2658433

 Al 
  0.2564465  0.7389436  0.9997896

 Al 
  0.9879053  0.0097693  0.4936723

 Al 
  0.0167875  0.2418469  0.7572373

 Al 
  0.2454767  0.9913866  0.7552139

 Al 
  0.2459581  0.2495334  0.4936018

 Al 
  0.9962960  0.4836221  0.5121863

 Al 
  0.0085008  0.7436959  0.7411663

 Al 
  0.2621454  0.4965088  0.7594290

 Al 
  0.2384461  0.7428036  0.4923531

 Al 
  0.5064118  0.4998131  0.0358608

 Al 
  0.5128892  0.7618348  0.2497735

 Al 
  0.7628211  0.4858448  0.2690176

 Al 
  0.7403297  0.7716611  0.9774269

 Al 
  0.4808834  0.0006807  0.5252587

 Al 
  0.5001646  0.2636973  0.7552497

 Al 
  0.7459754  0.9986585  0.7266608

 Al 
  0.7297980  0.2381479  0.5109685

 Al 
  0.5131070  0.5001151  0.4881033

 Al 
  0.4780098  0.7561123  0.7576358

 Al 
  0.7571667  0.5154646  0.7495000

 Al 
  0.7651738  0.7394547  0.4942354

