32 
charge = 0 
 Al 
  0.9943604  0.0001522  0.9920251

 Al 
  0.0080429  0.2493602  0.2386813

 Al 
  0.2402307  0.9838906  0.2471821

 Al 
  0.2564997  0.2554304  0.0005656

 Al 
  0.5131392  0.0274590  0.0070034

 Al 
  0.4778414  0.2344191  0.2651106

 Al 
  0.7482637  0.0363720  0.2293599

 Al 
  0.7689978  0.2554601  0.9819972

 Al 
  0.9938864  0.5078127  0.9960064

 Al 
  0.9926811  0.7250569  0.2297659

 Al 
  0.2547287  0.4984543  0.2666390

 Al 
  0.2579216  0.7376788  0.9996498

 Al 
  0.9869326  0.0092706  0.4930362

 Al 
  0.0170251  0.2407282  0.7572323

 Al 
  0.2442825  0.9925152  0.7554688

 Al 
  0.2454594  0.2483974  0.4920969

 Al 
  0.9964098  0.4824675  0.5123657

 Al 
  0.0084278  0.7431563  0.7413135

 Al 
  0.2623781  0.4960646  0.7608064

 Al 
  0.2368484  0.7419014  0.4916910

 Al 
  0.5067695  0.4999876  0.0355156

 Al 
  0.5127345  0.7621108  0.2504703

 Al 
  0.7631033  0.4856666  0.2707032

 Al 
  0.7405240  0.7729679  0.9757054

 Al 
  0.4813759  0.0006287  0.5262227

 Al 
  0.5014269  0.2638409  0.7544045

 Al 
  0.7463777  0.9992934  0.7253787

 Al 
  0.7293290  0.2377048  0.5111393

 Al 
  0.5130550  0.4998107  0.4880439

 Al 
  0.4772239  0.7562274  0.7579848

 Al 
  0.7571197  0.5158730  0.7514343

 Al 
  0.7666031  0.7398421  0.4950015

