32 
charge = 0 
 Al 
  0.9937058  0.0003044  0.9919657

 Al 
  0.0077212  0.2497785  0.2384647

 Al 
  0.2396750  0.9839946  0.2473541

 Al 
  0.2565195  0.2560170  0.0007623

 Al 
  0.5133669  0.0277041  0.0069836

 Al 
  0.4774009  0.2336939  0.2644560

 Al 
  0.7486238  0.0369450  0.2290864

 Al 
  0.7696673  0.2556024  0.9817856

 Al 
  0.9940746  0.5081258  0.9956351

 Al 
  0.9926786  0.7251114  0.2301755

 Al 
  0.2549181  0.4983256  0.2670140

 Al 
  0.2586468  0.7370576  0.9995978

 Al 
  0.9864660  0.0090095  0.4927033

 Al 
  0.0171242  0.2401824  0.7572088

 Al 
  0.2436748  0.9931080  0.7556037

 Al 
  0.2452032  0.2478120  0.4913804

 Al 
  0.9964828  0.4818858  0.5124486

 Al 
  0.0083894  0.7428964  0.7414039

 Al 
  0.2624821  0.4958393  0.7614796

 Al 
  0.2360551  0.7414522  0.4913643

 Al 
  0.5069625  0.5000668  0.0353027

 Al 
  0.5126504  0.7622543  0.2508316

 Al 
  0.7632308  0.4855663  0.2715076

 Al 
  0.7406366  0.7735991  0.9748688

 Al 
  0.4816296  0.0005953  0.5266608

 Al 
  0.5020593  0.2639102  0.7539887

 Al 
  0.7465880  0.9996027  0.7247810

 Al 
  0.7291248  0.2375142  0.5111999

 Al 
  0.5129994  0.4996733  0.4880526

 Al 
  0.4768724  0.7562608  0.7581432

 Al 
  0.7570690  0.5160524  0.7524132

 Al 
  0.7673011  0.7400624  0.4953777

