32 
charge = 0 
 Al 
  0.9912393  0.0008057  0.9917875

 Al 
  0.0065133  0.2514789  0.2376467

 Al 
  0.2374375  0.9844735  0.2479914

 Al 
  0.2565158  0.2582756  0.0016101

 Al 
  0.5140154  0.0285469  0.0066296

 Al 
  0.4758106  0.2309168  0.2618150

 Al 
  0.7501634  0.0389275  0.2283154

 Al 
  0.7721635  0.2563165  0.9809254

 Al 
  0.9949223  0.5092285  0.9940659

 Al 
  0.9927058  0.7256534  0.2320145

 Al 
  0.2555678  0.4978306  0.2683246

 Al 
  0.2613955  0.7346914  0.9995433

 Al 
  0.9847681  0.0078969  0.4912777

 Al 
  0.0173828  0.2381305  0.7569638

 Al 
  0.2412220  0.9956054  0.7561853

 Al 
  0.2441401  0.2453839  0.4888149

 Al 
  0.9968801  0.4795542  0.5127358

 Al 
  0.0082409  0.7419534  0.7418680

 Al 
  0.2628051  0.4949235  0.7640055

 Al 
  0.2329489  0.7397010  0.4901292

 Al 
  0.5078573  0.5003255  0.0342038

 Al 
  0.5122803  0.7628657  0.2523514

 Al 
  0.7636466  0.4851022  0.2744233

 Al 
  0.7411700  0.7759480  0.9717403

 Al 
  0.4826655  0.0003898  0.5281013

 Al 
  0.5045480  0.2641763  0.7524170

 Al 
  0.7474853  0.0007512  0.7227266

 Al 
  0.7285370  0.2369932  0.5112371

 Al 
  0.5125971  0.4992240  0.4883483

 Al 
  0.4757574  0.7562398  0.7586543

 Al 
  0.7566717  0.5165994  0.7563400

 Al 
  0.7699446  0.7410883  0.4968071

