32 
charge = 0 
 Al 
  0.0027016  0.9977031  0.9931934

 Al 
  0.0121652  0.2446079  0.2416465

 Al 
  0.2467304  0.9833981  0.2450658

 Al 
  0.2556928  0.2482204  0.9989369

 Al 
  0.5083907  0.0234506  0.0053710

 Al 
  0.4842297  0.2437503  0.2720336

 Al 
  0.7451017  0.0272462  0.2351381

 Al 
  0.7599550  0.2547696  0.9845082

 Al 
  0.9924620  0.5027115  0.9991411

 Al 
  0.9930783  0.7274071  0.2271138

 Al 
  0.2517128  0.5001188  0.2609042

 Al 
  0.2488082  0.7455002  0.0010754

 Al 
  0.9935399  0.0115935  0.4963368

 Al 
  0.0146404  0.2478961  0.7564898

 Al 
  0.2508997  0.9871850  0.7542300

 Al 
  0.2482389  0.2546347  0.5026459

 Al 
  0.9964828  0.4893471  0.5106901

 Al 
  0.0085045  0.7467910  0.7409584

 Al 
  0.2603572  0.4987488  0.7520445

 Al 
  0.2466363  0.7473479  0.4957799

 Al 
  0.5049849  0.4986275  0.0357371

 Al 
  0.5131949  0.7606146  0.2467984

 Al 
  0.7608905  0.4862061  0.2589575

 Al 
  0.7400104  0.7639807  0.9869487

 Al 
  0.4790703  0.0006708  0.5186179

 Al 
  0.4940696  0.2627395  0.7595206

 Al 
  0.7443072  0.9952329  0.7346183

 Al 
  0.7334538  0.2414398  0.5093956

 Al 
  0.5120947  0.5022734  0.4899473

 Al 
  0.4838077  0.7544020  0.7554341

 Al 
  0.7562868  0.5123855  0.7406081

 Al 
  0.7575033  0.7389956  0.4901181

