32 
charge = 0 
 Al 
  0.0021410  0.9978937  0.9930820

 Al 
  0.0118856  0.2449099  0.2414237

 Al 
  0.2463022  0.9833696  0.2451983

 Al 
  0.2557856  0.2486968  0.9989852

 Al 
  0.5088275  0.0237934  0.0055777

 Al 
  0.4837421  0.2430981  0.2716586

 Al 
  0.7452304  0.0279961  0.2345985

 Al 
  0.7606158  0.2547634  0.9843337

 Al 
  0.9925004  0.5031409  0.9990335

 Al 
  0.9930276  0.7270482  0.2271237

 Al 
  0.2519591  0.4999988  0.2613621

 Al 
  0.2494146  0.7449767  0.0009430

 Al 
  0.9930424  0.0115044  0.4961524

 Al 
  0.0148854  0.2473887  0.7565962

 Al 
  0.2505099  0.9874053  0.7542919

 Al 
  0.2480669  0.2542634  0.5018291

 Al 
  0.9964111  0.4888867  0.5108633

 Al 
  0.0085441  0.7465224  0.7409472

 Al 
  0.2605477  0.4985620  0.7526558

 Al 
  0.2459742  0.7469902  0.4955052

 Al 
  0.5050901  0.4987426  0.0358868

 Al 
  0.5132147  0.7607062  0.2470051

 Al 
  0.7610787  0.4862136  0.2598671

 Al 
  0.7399869  0.7646812  0.9861343

 Al 
  0.4791495  0.0006831  0.5192701

 Al 
  0.4945263  0.2628385  0.7591963

 Al 
  0.7444186  0.9955151  0.7338944

 Al 
  0.7330714  0.2411155  0.5095515

 Al 
  0.5122704  0.5020568  0.4896948

 Al 
  0.4832100  0.7546211  0.7556346

 Al 
  0.7564304  0.5127023  0.7412455

 Al 
  0.7581419  0.7389114  0.4904609

