32 
charge = 0 
 Al 
  0.9990570  0.9988751  0.9925721

 Al 
  0.0103572  0.2465955  0.2402802

 Al 
  0.2439582  0.9833993  0.2459569

 Al 
  0.2561767  0.2513316  0.9994344

 Al 
  0.5108980  0.0254430  0.0064725

 Al 
  0.4812386  0.2396082  0.2693382

 Al 
  0.7461648  0.0317039  0.2320677

 Al 
  0.7640723  0.2548550  0.9834167

 Al 
  0.9928716  0.5052374  0.9981498

 Al 
  0.9928197  0.7256547  0.2276645

 Al 
  0.2531818  0.4993726  0.2636590

 Al 
  0.2527647  0.7420969  0.0003044

 Al 
  0.9904745  0.0108188  0.4950609

 Al 
  0.0159707  0.2446896  0.7570331

 Al 
  0.2482352  0.9890030  0.7546792

 Al 
  0.2471016  0.2521224  0.4976635

 Al 
  0.9962131  0.4863930  0.5116182

 Al 
  0.0086110  0.7451178  0.7409646

 Al 
  0.2614252  0.4975756  0.7559378

 Al 
  0.2423754  0.7450101  0.4940003

 Al 
  0.5056730  0.4993045  0.0362296

 Al 
  0.5131602  0.7612185  0.2482278

 Al 
  0.7619969  0.4861368  0.2644968

 Al 
  0.7400240  0.7682095  0.9818536

 Al 
  0.4798253  0.0007227  0.5224382

 Al 
  0.4971388  0.2633001  0.7573437

 Al 
  0.7450968  0.9970385  0.7302077

 Al 
  0.7312819  0.2395302  0.5103275

 Al 
  0.5129090  0.5010185  0.4886602

 Al 
  0.4803945  0.7555443  0.7566544

 Al 
  0.7569786  0.5142010  0.7449891

 Al 
  0.7615564  0.7388718  0.4922962

