32 
charge = 0 
 Al 
  0.0003403  0.9984790  0.9927652

 Al 
  0.0109920  0.2458863  0.2407430

 Al 
  0.2449347  0.9833523  0.2456351

 Al 
  0.2560344  0.2502314  0.9992141

 Al 
  0.5100997  0.0247970  0.0061494

 Al 
  0.4822484  0.2410462  0.2703530

 Al 
  0.7457304  0.0302374  0.2330392

 Al 
  0.7626640  0.2547906  0.9837941

 Al 
  0.9926872  0.5044131  0.9985743

 Al 
  0.9928939  0.7261262  0.2273477

 Al 
  0.2526966  0.4996287  0.2627432

 Al 
  0.2513663  0.7432961  0.0005520

 Al 
  0.9915140  0.0111405  0.4955324

 Al 
  0.0155648  0.2457985  0.7568808

 Al 
  0.2492104  0.9882642  0.7545084

 Al 
  0.2475100  0.2530357  0.4993379

 Al 
  0.9962601  0.4874288  0.5113398

 Al 
  0.0086097  0.7456896  0.7409398

 Al 
  0.2610910  0.4979803  0.7545852

 Al 
  0.2438679  0.7458381  0.4946265

 Al 
  0.5054267  0.4990830  0.0361752

 Al 
  0.5132110  0.7610019  0.2476981

 Al 
  0.7616356  0.4861913  0.2626368

 Al 
  0.7399782  0.7667962  0.9836011

 Al 
  0.4795010  0.0007141  0.5211970

 Al 
  0.4960311  0.2631231  0.7581258

 Al 
  0.7448010  0.9964098  0.7316866

 Al 
  0.7319700  0.2401527  0.5100218

 Al 
  0.5127023  0.5014220  0.4890241

 Al 
  0.4814811  0.7552126  0.7562447

 Al 
  0.7567955  0.5136219  0.7433840

 Al 
  0.7601505  0.7388112  0.4915413

