32 
charge = 0 
 Al 
  0.0042572  0.9971548  0.9935449

 Al 
  0.0129400  0.2437751  0.2422974

 Al 
  0.2479382  0.9835528  0.2447181

 Al 
  0.2553908  0.2469036  0.9988775

 Al 
  0.5070553  0.0223962  0.0047164

 Al 
  0.4856542  0.2456029  0.2729791

 Al 
  0.7448258  0.0249950  0.2367952

 Al 
  0.7580429  0.2548240  0.9850193

 Al 
  0.9924175  0.5014207  0.9993342

 Al 
  0.9932380  0.7286199  0.2272697

 Al 
  0.2509789  0.5004653  0.2595404

 Al 
  0.2471375  0.7469482  0.0014715

 Al 
  0.9949903  0.0117618  0.4968318

 Al 
  0.0138582  0.2493466  0.7561395

 Al 
  0.2519380  0.9867098  0.7540654

 Al 
  0.2487154  0.2556445  0.5050344

 Al 
  0.9967539  0.4906576  0.5101195

 Al 
  0.0083313  0.7475657  0.7410091

 Al 
  0.2597532  0.4993008  0.7503119

 Al 
  0.2485001  0.7483342  0.4965509

 Al 
  0.5046755  0.4982885  0.0351381

 Al 
  0.5130687  0.7603547  0.2462527

 Al 
  0.7603262  0.4861492  0.2562856

 Al 
  0.7401379  0.7619029  0.9892914

 Al 
  0.4789515  0.0006262  0.5166514

 Al 
  0.4928432  0.2624313  0.7603869

 Al 
  0.7440201  0.9944359  0.7367346

 Al 
  0.7346319  0.2424063  0.5089426

 Al 
  0.5114846  0.5029367  0.4907777

 Al 
  0.4856480  0.7536842  0.7548500

 Al 
  0.7558005  0.5114165  0.7389164

 Al 
  0.7556940  0.7393891  0.4891466

