32 
charge = 0 
 Al 
  0.0060344  0.9964866  0.9940486

 Al 
  0.0138285  0.2428221  0.2431365

 Al 
  0.2493899  0.9839142  0.2443641

 Al 
  0.2549218  0.2454086  0.9989877

 Al 
  0.5052485  0.0209123  0.0038080

 Al 
  0.4874623  0.2478442  0.2738330

 Al 
  0.7446847  0.0219952  0.2390723

 Al 
  0.7556458  0.2549502  0.9856963

 Al 
  0.9925202  0.4997042  0.9993169

 Al 
  0.9934706  0.7305171  0.2278810

 Al 
  0.2500149  0.5009047  0.2577533

 Al 
  0.2452502  0.7485941  0.0019789

 Al 
  0.9968306  0.0117618  0.4973826

 Al 
  0.0126986  0.2511175  0.7556247

 Al 
  0.2530543  0.9864747  0.7538872

 Al 
  0.2492810  0.2567732  0.5080627

 Al 
  0.9972439  0.4922702  0.5092372

 Al 
  0.0079699  0.7485236  0.7411069

 Al 
  0.2588807  0.5000322  0.7482377

 Al 
  0.2507153  0.7494530  0.4974556

 Al 
  0.5042523  0.4978405  0.0339996

 Al 
  0.5127320  0.7600267  0.2456661

 Al 
  0.7595812  0.4860106  0.2528637

 Al 
  0.7404386  0.7591691  0.9921922

 Al 
  0.4790778  0.0005668  0.5140166

 Al 
  0.4915338  0.2619969  0.7612940

 Al 
  0.7437367  0.9934917  0.7394213

 Al 
  0.7362767  0.2436736  0.5083907

 Al 
  0.5104747  0.5038463  0.4920400

 Al 
  0.4881998  0.7526038  0.7541112

 Al 
  0.7550369  0.5100849  0.7371529

 Al 
  0.7535134  0.7402307  0.4879845

