32 
charge = 0 
 Al 
  0.0047337  0.9969803  0.9936662

 Al 
  0.0131776  0.2435201  0.2425090

 Al 
  0.2483169  0.9836270  0.2446166

 Al 
  0.2552807  0.2465014  0.9988850

 Al 
  0.5066049  0.0220348  0.0044924

 Al 
  0.4861158  0.2461858  0.2732352

 Al 
  0.7447676  0.0242451  0.2373583

 Al 
  0.7574291  0.2548500  0.9851876

 Al 
  0.9924261  0.5009900  0.9993577

 Al 
  0.9932936  0.7290654  0.2273811

 Al 
  0.2507363  0.5005767  0.2590911

 Al 
  0.2466289  0.7473900  0.0016014

 Al 
  0.9954594  0.0117853  0.4969803

 Al 
  0.0135810  0.2498057  0.7560158

 Al 
  0.2522437  0.9866108  0.7540171

 Al 
  0.2488639  0.2559490  0.5058091

 Al 
  0.9968628  0.4910735  0.5099129

 Al 
  0.0082545  0.7478132  0.7410301

 Al 
  0.2595428  0.4994827  0.7497686

 Al 
  0.2490817  0.7486350  0.4967898

 Al 
  0.5045728  0.4981758  0.0348894

 Al 
  0.5130031  0.7602718  0.2460918

 Al 
  0.7601393  0.4861207  0.2554156

 Al 
  0.7401997  0.7612160  0.9900389

 Al 
  0.4789528  0.0006114  0.5159930

 Al 
  0.4924818  0.2623261  0.7606406

 Al 
  0.7439397  0.9941884  0.7374202

 Al 
  0.7350342  0.2427256  0.5087991

 Al 
  0.5112532  0.5031620  0.4910784

 Al 
  0.4862754  0.7534268  0.7546619

 Al 
  0.7556210  0.5110873  0.7384251

 Al 
  0.7551260  0.7395661  0.4888421

