32 
charge = 0 
 Al 
  0.0056210  0.9966462  0.9939186

 Al 
  0.0136219  0.2430449  0.2429286

 Al 
  0.2490409  0.9838077  0.2444396

 Al 
  0.2550468  0.2457552  0.9989394

 Al 
  0.5057015  0.0212935  0.0040369

 Al 
  0.4870192  0.2473058  0.2736610

 Al 
  0.7446970  0.0227464  0.2384969

 Al 
  0.7562311  0.2549144  0.9855255

 Al 
  0.9924769  0.5001324  0.9993478

 Al 
  0.9934100  0.7300146  0.2276867

 Al 
  0.2502549  0.5007958  0.2581976

 Al 
  0.2456859  0.7482130  0.0018551

 Al 
  0.9963789  0.0117853  0.4972551

 Al 
  0.0130018  0.2506906  0.7557571

 Al 
  0.2528018  0.9864945  0.7539280

 Al 
  0.2491461  0.2565121  0.5073227

 Al 
  0.9971078  0.4918791  0.5094723

 Al 
  0.0080739  0.7482909  0.7410796

 Al 
  0.2591072  0.4998478  0.7487315

 Al 
  0.2501881  0.7491931  0.4972415

 Al 
  0.5043612  0.4979518  0.0343201

 Al 
  0.5128360  0.7601084  0.2457985

 Al 
  0.7597668  0.4860514  0.2537053

 Al 
  0.7403495  0.7598498  0.9914893

 Al 
  0.4790147  0.0005804  0.5146763

 Al 
  0.4918284  0.2621083  0.7610935

 Al 
  0.7437973  0.9937157  0.7387629

 Al 
  0.7358571  0.2433592  0.5085231

 Al 
  0.5107482  0.5036174  0.4917096

 Al 
  0.4875514  0.7528860  0.7542919

 Al 
  0.7552398  0.5104228  0.7375452

 Al 
  0.7540357  0.7399869  0.4882617

