32 
charge = 0 
 Al 
  0.0064267  0.9963319  0.9941810

 Al 
  0.0140241  0.2426093  0.2433432

 Al 
  0.2497302  0.9840317  0.2442948

 Al 
  0.2547918  0.2450807  0.9990471

 Al 
  0.5047943  0.0205225  0.0035790

 Al 
  0.4878991  0.2483689  0.2739765

 Al 
  0.7446847  0.0212415  0.2396527

 Al 
  0.7550678  0.2549874  0.9858695

 Al 
  0.9925746  0.4992760  0.9992686

 Al 
  0.9935325  0.7310381  0.2281013

 Al 
  0.2497772  0.5010111  0.2573090

 Al 
  0.2448369  0.7489567  0.0020989

 Al 
  0.9972774  0.0117234  0.4975038

 Al 
  0.0123868  0.2515346  0.7554886

 Al 
  0.2532919  0.9864796  0.7538463

 Al 
  0.2494134  0.2570207  0.5087904

 Al 
  0.9973875  0.4926551  0.5089921

 Al 
  0.0078573  0.7487513  0.7411366

 Al 
  0.2586506  0.5002190  0.7477600

 Al 
  0.2512264  0.7497005  0.4976610

 Al 
  0.5041384  0.4977291  0.0336530

 Al 
  0.5126157  0.7599451  0.2455411

 Al 
  0.7593956  0.4859685  0.2520308

 Al 
  0.7405376  0.7584884  0.9928828

 Al 
  0.4791594  0.0005532  0.5133570

 Al 
  0.4912628  0.2618843  0.7614772

 Al 
  0.7436822  0.9932751  0.7400710

 Al 
  0.7367024  0.2439854  0.5082632

 Al 
  0.5101876  0.5040790  0.4923791

 Al 
  0.4888557  0.7523130  0.7539330

 Al 
  0.7548265  0.5097458  0.7367927

 Al 
  0.7530048  0.7404955  0.4877160

