32 
charge = 0 
 Al 
  0.0081073  0.9956215  0.9948765

 Al 
  0.0148607  0.2416935  0.2443839

 Al 
  0.2513390  0.9847829  0.2440783

 Al 
  0.2540617  0.2436946  0.9995322

 Al 
  0.5025048  0.0184125  0.0024368

 Al 
  0.4900314  0.2508279  0.2743057

 Al 
  0.7448654  0.0173989  0.2426241

 Al 
  0.7522536  0.2551829  0.9867841

 Al 
  0.9930362  0.4971412  0.9987996

 Al 
  0.9938642  0.7339228  0.2295951

 Al 
  0.2485917  0.5015445  0.2550851

 Al 
  0.2430969  0.7504876  0.0026484

 Al 
  0.9994703  0.0112965  0.4980558

 Al 
  0.0106727  0.2534875  0.7547795

 Al 
  0.2542807  0.9868459  0.7536632

 Al 
  0.2500458  0.2580924  0.5122791

 Al 
  0.9982340  0.4945213  0.5075825

 Al 
  0.0071482  0.7498391  0.7413123

 Al 
  0.2574031  0.5012165  0.7456017

 Al 
  0.2535716  0.7507611  0.4985743

 Al 
  0.5034837  0.4971697  0.0315331

 Al 
  0.5118138  0.7595082  0.2450275

 Al 
  0.7584724  0.4857235  0.2479729

 Al 
  0.7411688  0.7550530  0.9961685

 Al 
  0.4798958  0.0004987  0.5100144

 Al 
  0.4902072  0.2612866  0.7621578

 Al 
  0.7434941  0.9922912  0.7432305

 Al 
  0.7389424  0.2455423  0.5076840

 Al 
  0.5085342  0.5052757  0.4942169

 Al 
  0.4922578  0.7507438  0.7530840

 Al 
  0.7536582  0.5079909  0.7354215

 Al 
  0.7506299  0.7421452  0.4864895

