32 
charge = 0 
 Al 
  0.0097173  0.9948084  0.9959507

 Al 
  0.0156428  0.2407962  0.2459618

 Al 
  0.2534466  0.9863286  0.2441513

 Al 
  0.2527783  0.2424472  0.0007042

 Al 
  0.4992302  0.0147926  0.0008799

 Al 
  0.4929744  0.2539862  0.2736907

 Al 
  0.7455386  0.0115960  0.2470682

 Al 
  0.7483157  0.2553624  0.9883236

 Al 
  0.9942973  0.4941513  0.9975769

 Al 
  0.9944433  0.7388038  0.2328078

 Al 
  0.2469098  0.5023105  0.2518539

 Al 
  0.2415078  0.7518947  0.0032016

 Al 
  0.0025976  0.0100329  0.4987612

 Al 
  0.0077496  0.2559205  0.7536929

 Al 
  0.2552374  0.9882159  0.7533959

 Al 
  0.2508972  0.2591901  0.5167702

 Al 
  0.9997661  0.4971301  0.5049527

 Al 
  0.0057423  0.7512834  0.7416712

 Al 
  0.2553438  0.5029330  0.7432305

 Al 
  0.2564031  0.7518514  0.4995607

 Al 
  0.5021682  0.4963653  0.0273081

 Al 
  0.5099772  0.7587162  0.2445498

 Al 
  0.7571333  0.4853609  0.2424917

 Al 
  0.7424707  0.7499864  0.0004616

 Al 
  0.4819192  0.0004690  0.5051210

 Al 
  0.4895117  0.2603287  0.7625056

 Al 
  0.7434632  0.9911514  0.7475744

 Al 
  0.7425202  0.2477687  0.5070021

 Al 
  0.5055740  0.5070826  0.4971449

 Al 
  0.4974704  0.7482204  0.7520172

 Al 
  0.7516571  0.5053339  0.7345664

 Al 
  0.7475979  0.7453827  0.4850515

