32 
charge = 0 
 Al 
  0.0086543  0.9953666  0.9951710

 Al 
  0.0151292  0.2413915  0.2448146

 Al 
  0.2519529  0.9851629  0.2440523

 Al 
  0.2537288  0.2432565  0.9998094

 Al 
  0.5015791  0.0174707  0.0019851

 Al 
  0.4908693  0.2517549  0.2742587

 Al 
  0.7450126  0.0158037  0.2438567

 Al 
  0.7511386  0.2552535  0.9871863

 Al 
  0.9933172  0.4962873  0.9985124

 Al 
  0.9940127  0.7352136  0.2303772

 Al 
  0.2481164  0.5017586  0.2541817

 Al 
  0.2425449  0.7509764  0.0028365

 Al 
  0.0003478  0.0110155  0.4982600

 Al 
  0.0099055  0.2542151  0.7544800

 Al 
  0.2545975  0.9871405  0.7535914

 Al 
  0.2502908  0.2584513  0.5136082

 Al 
  0.9986313  0.4952564  0.5069192

 Al 
  0.0067967  0.7502574  0.7413989

 Al 
  0.2568561  0.5016596  0.7448443

 Al 
  0.2544280  0.7511150  0.4988899

 Al 
  0.5031644  0.4969420  0.0304874

 Al 
  0.5113806  0.7593114  0.2448654

 Al 
  0.7580974  0.4856170  0.2463863

 Al 
  0.7414893  0.7536459  0.9974246

 Al 
  0.4803487  0.0004851  0.5086468

 Al 
  0.4899188  0.2610304  0.7623261

 Al 
  0.7434582  0.9919385  0.7444706

 Al 
  0.7399052  0.2461685  0.5074774

 Al 
  0.5077669  0.5057745  0.4950139

 Al 
  0.4936884  0.7500606  0.7527635

 Al 
  0.7531310  0.5072571  0.7350577

 Al 
  0.7497389  0.7429595  0.4860465

