32 
charge = 0 
 Al 
  0.0083894  0.9954916  0.9950225

 Al 
  0.0149993  0.2415375  0.2445980

 Al 
  0.2516472  0.9849673  0.2440609

 Al 
  0.2538983  0.2434669  0.9996646

 Al 
  0.5020432  0.0179496  0.0022103

 Al 
  0.4904510  0.2512945  0.2742946

 Al 
  0.7449334  0.0166069  0.2432367

 Al 
  0.7516967  0.2552200  0.9869821

 Al 
  0.9931699  0.4967143  0.9986622

 Al 
  0.9939372  0.7345577  0.2299725

 Al 
  0.2483553  0.5016509  0.2546359

 Al 
  0.2428110  0.7507413  0.0027462

 Al 
  0.9999084  0.0111641  0.4981585

 Al 
  0.0102953  0.2538550  0.7546310

 Al 
  0.2544441  0.9869833  0.7536273

 Al 
  0.2501683  0.2582768  0.5129474

 Al 
  0.9984283  0.4948889  0.5072583

 Al 
  0.0069774  0.7500495  0.7413544

 Al 
  0.2571333  0.5014343  0.7452156

 Al 
  0.2540048  0.7509430  0.4987352

 Al 
  0.5033290  0.4970558  0.0310257

 Al 
  0.5116059  0.7594129  0.2449433

 Al 
  0.7582855  0.4856703  0.2471784

 Al 
  0.7413247  0.7543525  0.9967997

 Al 
  0.4801111  0.0004913  0.5093325

 Al 
  0.4900537  0.2611603  0.7622494

 Al 
  0.7434743  0.9921118  0.7438506

 Al 
  0.7394188  0.2458542  0.5075788

 Al 
  0.5081592  0.5055232  0.4946117

 Al 
  0.4929682  0.7504072  0.7529219

 Al 
  0.7533983  0.5076259  0.7352272

 Al 
  0.7501807  0.7425412  0.4862643

