32 
charge = 0 
 Al 
  0.0103200  0.9943839  0.9967786

 Al 
  0.0159163  0.2404361  0.2472501

 Al 
  0.2548896  0.9878187  0.2445040

 Al 
  0.2516633  0.2420722  0.0018638

 Al 
  0.4968789  0.0115749  0.9998292

 Al 
  0.4951203  0.2561395  0.2724717

 Al 
  0.7462588  0.0070652  0.2504418

 Al 
  0.7454000  0.2552757  0.9896911

 Al 
  0.9957156  0.4920623  0.9963764

 Al 
  0.9949928  0.7428927  0.2359240

 Al 
  0.2456710  0.5028810  0.2494208

 Al 
  0.2409621  0.7523675  0.0033674

 Al 
  0.0049738  0.0086456  0.4992835

 Al 
  0.0052485  0.2574291  0.7528464

 Al 
  0.2556990  0.9897295  0.7531508

 Al 
  0.2514863  0.2597025  0.5196401

 Al 
  0.0010816  0.4991015  0.5025036

 Al 
  0.0044367  0.7522722  0.7420375

 Al 
  0.2536050  0.5044899  0.7420796

 Al 
  0.2581407  0.7524132  0.5000693

 Al 
  0.5008205  0.4957997  0.0232526

 Al 
  0.5080875  0.7579105  0.2443419

 Al 
  0.7561160  0.4851703  0.2387518

 Al 
  0.7437082  0.7461103  0.0033526

 Al 
  0.4841617  0.0004752  0.5014690

 Al 
  0.4895414  0.2595292  0.7623558

 Al 
  0.7436068  0.9905042  0.7507203

 Al 
  0.7454544  0.2494307  0.5065541

 Al 
  0.5030197  0.5084587  0.4994146

 Al 
  0.5015272  0.7462341  0.7513737

 Al 
  0.7499666  0.5033092  0.7346332

 Al 
  0.7455312  0.7483144  0.4842471

