32 
charge = 0 
 Al 
  0.0103807  0.9943184  0.9969482

 Al 
  0.0159398  0.2403940  0.2475249

 Al 
  0.2551681  0.9881553  0.2446055

 Al 
  0.2514220  0.2420524  0.0021224

 Al 
  0.4964173  0.0108658  0.9996312

 Al 
  0.4955534  0.2565603  0.2721511

 Al 
  0.7464222  0.0061309  0.2511237

 Al 
  0.7448097  0.2552238  0.9899943

 Al 
  0.9960534  0.4916588  0.9961141

 Al 
  0.9951203  0.7437602  0.2366244

 Al 
  0.2454210  0.5029949  0.2489258

 Al 
  0.2409113  0.7524071  0.0033724

 Al 
  0.0054638  0.0083238  0.4993936

 Al 
  0.0047114  0.2577001  0.7526719

 Al 
  0.2557720  0.9900760  0.7530939

 Al 
  0.2516002  0.2597767  0.5201661

 Al 
  0.0013601  0.4995099  0.5019553

 Al 
  0.0041495  0.7524615  0.7421242

 Al 
  0.2532313  0.5048352  0.7419150

 Al 
  0.2584550  0.7525085  0.5001522

 Al 
  0.5005049  0.4956920  0.0223380

 Al 
  0.5076531  0.7577187  0.2443109

 Al 
  0.7559081  0.4851468  0.2380377

 Al 
  0.7439842  0.7453171  0.0039070

 Al 
  0.4846914  0.0004802  0.5007339

 Al 
  0.4895983  0.2593572  0.7622865

 Al 
  0.7436525  0.9903940  0.7513514

 Al 
  0.7460757  0.2497673  0.5064626

 Al 
  0.5024764  0.5087347  0.4998738

 Al 
  0.5023600  0.7458294  0.7512611

 Al 
  0.7496077  0.5028996  0.7347099

 Al 
  0.7451265  0.7489481  0.4841159

