32 
charge = 0 
 Al 
  0.0104401  0.9942107  0.9972873

 Al 
  0.0159534  0.2403421  0.2480929

 Al 
  0.2557114  0.9888632  0.2448406

 Al 
  0.2509282  0.2420685  0.0026595

 Al 
  0.4955151  0.0093881  0.9992488

 Al 
  0.4964173  0.2573870  0.2714383

 Al 
  0.7467625  0.0042498  0.2524826

 Al 
  0.7436303  0.2550777  0.9906255

 Al 
  0.9967761  0.4908779  0.9955708

 Al 
  0.9953963  0.7455262  0.2380922

 Al 
  0.2449223  0.5032201  0.2479370

 Al 
  0.2408705  0.7524281  0.0033501

 Al 
  0.0064527  0.0076370  0.4996188

 Al 
  0.0036100  0.2582075  0.7523167

 Al 
  0.2558995  0.9908074  0.7529677

 Al 
  0.2518192  0.2598943  0.5211574

 Al 
  0.0019269  0.5003366  0.5008106

 Al 
  0.0035506  0.7528303  0.7423073

 Al 
  0.2524640  0.5055591  0.7416564

 Al 
  0.2590453  0.7526843  0.5002970

 Al 
  0.4998280  0.4954866  0.0204148

 Al 
  0.5067323  0.7573016  0.2442577

 Al 
  0.7554886  0.4851195  0.2366628

 Al 
  0.7445597  0.7437256  0.0049812

 Al 
  0.4858262  0.0004913  0.4992773

 Al 
  0.4897604  0.2590045  0.7621145

 Al 
  0.7437590  0.9901960  0.7526100

 Al 
  0.7473405  0.2504418  0.5062757

 Al 
  0.5013675  0.5092805  0.5007821

 Al 
  0.5040332  0.7450250  0.7510569

 Al 
  0.7488788  0.5020841  0.7349228

 Al 
  0.7443320  0.7502475  0.4838882

