32 
charge = 0 
 Al 
  0.0103695  0.9941104  0.9977885

 Al 
  0.0158866  0.2403445  0.2489753

 Al 
  0.2564749  0.9900042  0.2452626

 Al 
  0.2501671  0.2422306  0.0035011

 Al 
  0.4942367  0.0070442  0.9987241

 Al 
  0.4976932  0.2585800  0.2702057

 Al 
  0.7473021  0.0014442  0.2544676

 Al 
  0.7418890  0.2547485  0.9916291

 Al 
  0.9979692  0.4897839  0.9947391

 Al 
  0.9958579  0.7482191  0.2404275

 Al 
  0.2441884  0.5035444  0.2464729

 Al 
  0.2409497  0.7523254  0.0032338

 Al 
  0.0079439  0.0065182  0.4999703

 Al 
  0.0019108  0.2588634  0.7517809

 Al 
  0.2560467  0.9919682  0.7527511

 Al 
  0.2521274  0.2599983  0.5224630

 Al 
  0.0027845  0.5015927  0.4989901

 Al 
  0.0026100  0.7533451  0.7426118

 Al 
  0.2512747  0.5067064  0.7414546

 Al 
  0.2598188  0.7529169  0.5004690

 Al 
  0.4987092  0.4952106  0.0173271

 Al 
  0.5052448  0.7565925  0.2441971

 Al 
  0.7548649  0.4851319  0.2347619

 Al 
  0.7454705  0.7413631  0.0064873

 Al 
  0.4876962  0.0005198  0.4971561

 Al 
  0.4901181  0.2584575  0.7617680

 Al 
  0.7439595  0.9899597  0.7544676

 Al 
  0.7492723  0.2514418  0.5059787

 Al 
  0.4996869  0.5100589  0.5020977

 Al 
  0.5065220  0.7438555  0.7508094

 Al 
  0.7477711  0.5008849  0.7353819

 Al 
  0.7431872  0.7522350  0.4836493

