32 
charge = 0 
 Al 
  0.0090862  0.9942589  0.9991646

 Al 
  0.0150302  0.2409200  0.2516781

 Al 
  0.2582508  0.9937812  0.2469160

 Al 
  0.2479469  0.2435845  0.0060084

 Al 
  0.4912517  0.9995891  0.9976127

 Al 
  0.5011311  0.2616158  0.2657146

 Al 
  0.7489852  0.9938629  0.2594636

 Al 
  0.7372618  0.2529305  0.9948480

 Al 
  0.0019207  0.4872791  0.9924088

 Al 
  0.9975769  0.7559737  0.2478355

 Al 
  0.2422454  0.5043055  0.2425400

 Al 
  0.2419843  0.7511930  0.0023118

 Al 
  0.0121652  0.0028068  0.5011188

 Al 
  0.9968888  0.2599636  0.7502747

 Al 
  0.2561680  0.9955411  0.7519145

 Al 
  0.2528439  0.2598399  0.5247822

 Al 
  0.0051495  0.5053054  0.4932417

 Al 
  0.9996857  0.7545221  0.7436612

 Al 
  0.2476474  0.5102903  0.7421675

 Al 
  0.2611826  0.7535159  0.5006967

 Al 
  0.4948505  0.4947342  0.0073090

 Al 
  0.5004319  0.7539206  0.2440758

 Al 
  0.7531768  0.4856109  0.2307027

 Al 
  0.7483293  0.7349995  0.0099537

 Al 
  0.4940349  0.0007376  0.4917702

 Al 
  0.4918593  0.2567620  0.7601913

 Al 
  0.7448097  0.9897307  0.7594698

 Al 
  0.7548463  0.2541533  0.5048859

 Al 
  0.4949891  0.5117729  0.5052807

 Al 
  0.5132444  0.7410153  0.7505668

 Al 
  0.7446958  0.4976994  0.7375699

 Al 
  0.7403297  0.7577830  0.4838597

