32 
charge = 0 
 Al 
  0.0098411  0.9941117  0.9985842

 Al 
  0.0155339  0.2405636  0.2504826

 Al 
  0.2575689  0.9920586  0.2461227

 Al 
  0.2489010  0.2428432  0.0049230

 Al 
  0.4923964  0.0029318  0.9980137

 Al 
  0.4996980  0.2603844  0.2678184

 Al 
  0.7482365  0.9970088  0.2574749

 Al 
  0.7391726  0.2538897  0.9933988

 Al 
  0.0001374  0.4882333  0.9933852

 Al 
  0.9967526  0.7526459  0.2445263

 Al 
  0.2430461  0.5040159  0.2441773

 Al 
  0.2414064  0.7518254  0.0028216

 Al 
  0.0103621  0.0044936  0.5005916

 Al 
  0.9990669  0.2596418  0.7509146

 Al 
  0.2561717  0.9939731  0.7523180

 Al 
  0.2525667  0.2599871  0.5240656

 Al 
  0.0041582  0.5036805  0.4958022

 Al 
  0.0009863  0.7540765  0.7431773

 Al 
  0.2492488  0.5087038  0.7416217

 Al 
  0.2607631  0.7532548  0.5006411

 Al 
  0.4966301  0.4948728  0.0118311

 Al 
  0.5025952  0.7552027  0.2441253

 Al 
  0.7538798  0.4853138  0.2321704

 Al 
  0.7470534  0.7376442  0.0086295

 Al 
  0.4911341  0.0006076  0.4939397

 Al 
  0.4909806  0.2575194  0.7609834

 Al 
  0.7443914  0.9897394  0.7573796

 Al 
  0.7524516  0.2530209  0.5054168

 Al 
  0.4969692  0.5111566  0.5040406

 Al 
  0.5104450  0.7421180  0.7505779

 Al 
  0.7459853  0.4990199  0.7364697

 Al 
  0.7414720  0.7554601  0.4835775

