32 
charge = 0 
 Al 
  0.0092990  0.9942107  0.9990248

 Al 
  0.0151750  0.2408173  0.2513824

 Al 
  0.2580974  0.9933469  0.2467106

 Al 
  0.2481783  0.2433815  0.0057448

 Al 
  0.4915091  0.0004245  0.9976994

 Al 
  0.5007896  0.2613262  0.2662517

 Al 
  0.7487983  0.9946079  0.2590070

 Al 
  0.7377147  0.2531929  0.9944842

 Al 
  0.0014764  0.4874932  0.9926402

 Al 
  0.9973615  0.7551656  0.2470125

 Al 
  0.2424348  0.5042411  0.2429310

 Al 
  0.2418259  0.7513663  0.0024541

 Al 
  0.0117271  0.0032300  0.5009839

 Al 
  0.9974209  0.2599092  0.7504294

 Al 
  0.2561767  0.9951562  0.7520197

 Al 
  0.2527808  0.2598856  0.5246510

 Al 
  0.0049131  0.5049045  0.4938778

 Al 
  0.0000087  0.7544230  0.7435387

 Al 
  0.2480447  0.5098993  0.7420004

 Al 
  0.2611059  0.7534491  0.5006881

 Al 
  0.4953010  0.4947577  0.0084427

 Al 
  0.5009715  0.7542547  0.2440882

 Al 
  0.7533439  0.4855242  0.2310170

 Al 
  0.7480112  0.7356294  0.0096567

 Al 
  0.4933035  0.0006992  0.4922751

 Al 
  0.4916267  0.2569526  0.7604017

 Al 
  0.7446995  0.9897183  0.7589699

 Al 
  0.7542646  0.2538835  0.5050257

 Al 
  0.4954643  0.5116442  0.5049998

 Al 
  0.5125773  0.7412628  0.7505557

 Al 
  0.7450027  0.4980137  0.7372791

 Al 
  0.7405933  0.7572323  0.4837582

