32 
charge = 0 
 Al 
  0.0099859  0.9940944  0.9984308

 Al 
  0.0156292  0.2404992  0.2501807

 Al 
  0.2573709  0.9916366  0.2459371

 Al 
  0.2491498  0.2426897  0.0046421

 Al 
  0.4927293  0.0037659  0.9981375

 Al 
  0.4993132  0.2600453  0.2683221

 Al 
  0.7480484  0.9978578  0.2569143

 Al 
  0.7396899  0.2540914  0.9930387

 Al 
  0.9996931  0.4885129  0.9936464

 Al 
  0.9965608  0.7517784  0.2436971

 Al 
  0.2432639  0.5039305  0.2446166

 Al 
  0.2412876  0.7519541  0.0029256

 Al 
  0.0098906  0.0049094  0.5004641

 Al 
  0.9996300  0.2595193  0.7510829

 Al 
  0.2561581  0.9935721  0.7524120

 Al 
  0.2524875  0.2600057  0.5238070

 Al 
  0.0038934  0.5032672  0.4964470

 Al 
  0.0013131  0.7539441  0.7430597

 Al 
  0.2496547  0.5083016  0.7415388

 Al 
  0.2606109  0.7531892  0.5006163

 Al 
  0.4970620  0.4949260  0.0129523

 Al 
  0.5031335  0.7555010  0.2441377

 Al 
  0.7540679  0.4852606  0.2326234

 Al 
  0.7467341  0.7383558  0.0082422

 Al 
  0.4904237  0.0005841  0.4945411

 Al 
  0.4907851  0.2577088  0.7611591

 Al 
  0.7442961  0.9897654  0.7568214

 Al 
  0.7518279  0.2527177  0.5055369

 Al 
  0.4974952  0.5109623  0.5036842

 Al 
  0.5096926  0.7424373  0.7506052

 Al 
  0.7463306  0.4993763  0.7362235

 Al 
  0.7417912  0.7548364  0.4835553

