32 
charge = 0 
 Al 
  0.0071717  0.9947849  0.0000681

 Al 
  0.0136676  0.2418717  0.2537077

 Al 
  0.2590280  0.9969172  0.2484716

 Al 
  0.2464915  0.2452440  0.0076766

 Al 
  0.4899881  0.9937874  0.9972390

 Al 
  0.5032177  0.2633013  0.2617878

 Al 
  0.7502698  0.9894795  0.2618286

 Al 
  0.7345490  0.2506646  0.9974209

 Al 
  0.0049168  0.4862544  0.9910537

 Al 
  0.9993045  0.7611740  0.2534788

 Al 
  0.2411316  0.5046173  0.2401527

 Al 
  0.2432256  0.7497748  0.0010891

 Al 
  0.0149733  0.9998639  0.5021323

 Al 
  0.9934261  0.2598918  0.7492872

 Al 
  0.2559737  0.9980805  0.7511274

 Al 
  0.2531793  0.2593820  0.5248527

 Al 
  0.0065913  0.5080479  0.4889411

 Al 
  0.9974506  0.7549800  0.7445659

 Al 
  0.2449210  0.5128905  0.7438122

 Al 
  0.2612358  0.7540642  0.5006757

 Al 
  0.4916229  0.4947985  0.9993948

 Al 
  0.4967118  0.7513007  0.2439731

 Al 
  0.7521657  0.4864697  0.2294540

 Al 
  0.7505445  0.7311952  0.0114227

 Al 
  0.4992018  0.0011720  0.4889399

 Al 
  0.4936897  0.2553599  0.7584575

 Al 
  0.7456685  0.9900822  0.7626058

 Al 
  0.7585874  0.2557992  0.5037139

 Al 
  0.4920573  0.5121739  0.5066927

 Al 
  0.5172974  0.7398371  0.7509034

 Al 
  0.7428518  0.4957762  0.7398730

 Al 
  0.7388855  0.7609636  0.4851975

