32 
charge = 0 
 Al 
  0.0088560  0.9943146  0.9993020

 Al 
  0.0148743  0.2410314  0.2519727

 Al 
  0.2583931  0.9942206  0.2471251

 Al 
  0.2477216  0.2437961  0.0062670

 Al 
  0.4910153  0.9987562  0.9975348

 Al 
  0.5014628  0.2618930  0.2651713

 Al 
  0.7491696  0.9931464  0.2598918

 Al 
  0.7368249  0.2526533  0.9952119

 Al 
  0.0023625  0.4870823  0.9921860

 Al 
  0.9977996  0.7567658  0.2486560

 Al 
  0.2420635  0.5043649  0.2421625

 Al 
  0.2421477  0.7510111  0.0021620

 Al 
  0.0125922  0.0023835  0.5012549

 Al 
  0.9963653  0.2600020  0.7501238

 Al 
  0.2561544  0.9959210  0.7518081

 Al 
  0.2529033  0.2597879  0.5248824

 Al 
  0.0053784  0.5057027  0.4926118

 Al 
  0.9993639  0.7546136  0.7437862

 Al 
  0.2472526  0.5106777  0.7423543

 Al 
  0.2612420  0.7535852  0.5007017

 Al 
  0.4943963  0.4947206  0.0061767

 Al 
  0.4998948  0.7535766  0.2440634

 Al 
  0.7530159  0.4857074  0.2304230

 Al 
  0.7486461  0.7343919  0.0102285

 Al 
  0.4947688  0.0007821  0.4912913

 Al 
  0.4920994  0.2565690  0.7599710

 Al 
  0.7449223  0.9897517  0.7599574

 Al 
  0.7554168  0.2544144  0.5047386

 Al 
  0.4945287  0.5118856  0.5055406

 Al 
  0.5138892  0.7407863  0.7505878

 Al 
  0.7443988  0.4973949  0.7378719

 Al 
  0.7400797  0.7583115  0.4839822

