32 
charge = 0 
 Al 
  0.0064997  0.9949903  0.0003106

 Al 
  0.0131578  0.2422133  0.2542795

 Al 
  0.2591642  0.9978528  0.2489592

 Al 
  0.2461314  0.2457787  0.0080912

 Al 
  0.4897913  0.9921291  0.9971982

 Al 
  0.5037176  0.2636825  0.2606084

 Al 
  0.7506373  0.9884956  0.2622222

 Al 
  0.7339104  0.2498688  0.9981783

 Al 
  0.0057200  0.4861096  0.9907579

 Al 
  0.9998874  0.7625241  0.2550579

 Al 
  0.2408804  0.5046644  0.2395735

 Al 
  0.2436006  0.7493243  0.0006646

 Al 
  0.0157047  0.9990335  0.5024553

 Al 
  0.9925202  0.2597260  0.7490310

 Al 
  0.2558797  0.9987600  0.7508898

 Al 
  0.2532449  0.2592198  0.5246089

 Al 
  0.0069365  0.5088275  0.4877593

 Al 
  0.9968096  0.7550319  0.7448456

 Al 
  0.2441463  0.5135822  0.7444087

 Al 
  0.2611059  0.7542609  0.5006510

 Al 
  0.4906787  0.4948876  0.9971251

 Al 
  0.4956623  0.7504492  0.2439384

 Al 
  0.7519244  0.4867989  0.2293896

 Al 
  0.7511868  0.7302906  0.0116554

 Al 
  0.5006930  0.0013613  0.4883459

 Al 
  0.4942738  0.2549168  0.7578659

 Al 
  0.7459408  0.9902715  0.7634040

 Al 
  0.7595589  0.2561977  0.5033068

 Al 
  0.4913358  0.5121194  0.5069254

 Al 
  0.5182689  0.7396899  0.7510767

 Al 
  0.7424274  0.4953059  0.7406156

 Al 
  0.7386033  0.7616356  0.4858014

