32 
charge = 0 
 Al 
  0.0077892  0.9946030  0.9998218

 Al 
  0.0141231  0.2415598  0.2531335

 Al 
  0.2588560  0.9960027  0.2480050

 Al 
  0.2468764  0.2447329  0.0072336

 Al 
  0.4902567  0.9954408  0.9973083

 Al 
  0.5026756  0.2628781  0.2629400

 Al 
  0.7499035  0.9905809  0.2613064

 Al 
  0.7352445  0.2513923  0.9966771

 Al 
  0.0040877  0.4864635  0.9913915

 Al 
  0.9987662  0.7597668  0.2518873

 Al 
  0.2414126  0.5045530  0.2407764

 Al 
  0.2428543  0.7502091  0.0014789

 Al 
  0.0142122  0.0006980  0.5018266

 Al 
  0.9943679  0.2599933  0.7495545

 Al 
  0.2560517  0.9973826  0.7513601

 Al 
  0.2531013  0.2595329  0.5249814

 Al 
  0.0062175  0.5072707  0.4901428

 Al 
  0.9980880  0.7548921  0.7442985

 Al 
  0.2456933  0.5121751  0.7432677

 Al 
  0.2613039  0.7538884  0.5006943

 Al 
  0.4925561  0.4947416  0.0016559

 Al 
  0.4977662  0.7521026  0.2440052

 Al 
  0.7524281  0.4861789  0.2296446

 Al 
  0.7499097  0.7321779  0.0111096

 Al 
  0.4977192  0.0010148  0.4896255

 Al 
  0.4931315  0.2557794  0.7590020

 Al 
  0.7454074  0.9899337  0.7617692

 Al 
  0.7575764  0.2553710  0.5040852

 Al 
  0.4928271  0.5121516  0.5063871

 Al 
  0.5162467  0.7400710  0.7507636

 Al 
  0.7433221  0.4962799  0.7391701

 Al 
  0.7392258  0.7601839  0.4846963

