32 
charge = 0 
 Al 
  0.0032387  0.9960460  0.0012908

 Al 
  0.0104586  0.2439038  0.2566309

 Al 
  0.2594117  0.0019727  0.2511843

 Al 
  0.2449569  0.2480954  0.0094339

 Al 
  0.4896961  0.9852718  0.9972848

 Al 
  0.5053104  0.2648186  0.2554725

 Al 
  0.7521732  0.9856876  0.2624350

 Al 
  0.7318598  0.2458839  0.0014591

 Al 
  0.0086072  0.4861987  0.9899943

 Al 
  0.0028093  0.7675140  0.2613695

 Al 
  0.2401824  0.5046817  0.2376306

 Al 
  0.2450374  0.7474321  0.9985966

 Al 
  0.0184063  0.9957811  0.5040307

 Al 
  0.9892221  0.2584030  0.7480768

 Al 
  0.2553351  0.0013650  0.7499282

 Al 
  0.2533724  0.2584872  0.5224234

 Al 
  0.0080503  0.5120897  0.4831729

 Al 
  0.9940906  0.7548611  0.7461425

 Al 
  0.2409175  0.5161094  0.7472019

 Al 
  0.2600267  0.7553314  0.5005000

 Al 
  0.4867469  0.4955336  0.9877283

 Al 
  0.4914126  0.7464049  0.2438097

 Al 
  0.7511274  0.4885822  0.2304242

 Al 
  0.7539528  0.7273650  0.0118039

 Al 
  0.5068276  0.0025345  0.4868447

 Al 
  0.4969271  0.2527400  0.7548983

 Al 
  0.7471833  0.9914819  0.7663346

 Al 
  0.7631144  0.2575380  0.5012239

 Al 
  0.4888496  0.5110725  0.5071284

 Al 
  0.5214333  0.7400215  0.7520692

 Al 
  0.7411923  0.4936439  0.7440560

 Al 
  0.7380711  0.7631454  0.4894188

