32 
charge = 0 
 Al 
  0.0045716  0.9956042  0.0009133

 Al 
  0.0116046  0.2432058  0.2557299

 Al 
  0.2593683  0.0003391  0.2502908

 Al 
  0.2453455  0.2471994  0.0089946

 Al 
  0.4896032  0.9879041  0.9972043

 Al 
  0.5047906  0.2644646  0.2574910

 Al 
  0.7515804  0.9865328  0.2626231

 Al 
  0.7325405  0.2475410  0.0001683

 Al 
  0.0075949  0.4860378  0.9902010

 Al 
  0.0015878  0.7657071  0.2589946

 Al 
  0.2403841  0.5047077  0.2382914

 Al 
  0.2445213  0.7481498  0.9994468

 Al 
  0.0174311  0.9969853  0.5033748

 Al 
  0.9904002  0.2590280  0.7484221

 Al 
  0.2555703  0.0003997  0.7502871

 Al 
  0.2533501  0.2587756  0.5234803

 Al 
  0.0076840  0.5108287  0.4848708

 Al 
  0.9951512  0.7550010  0.7456141

 Al 
  0.2421650  0.5152084  0.7460868

 Al 
  0.2605292  0.7548686  0.5005631

 Al 
  0.4882568  0.4952391  0.9913358

 Al 
  0.4930251  0.7480558  0.2438518

 Al 
  0.7513972  0.4878187  0.2297881

 Al 
  0.7528650  0.7283377  0.0118930

 Al 
  0.5044837  0.0020036  0.4872482

 Al 
  0.4958665  0.2536508  0.7561395

 Al 
  0.7466870  0.9909349  0.7652752

 Al 
  0.7618360  0.2570776  0.5021014

 Al 
  0.4897146  0.5116281  0.5071878

 Al 
  0.5203777  0.7397146  0.7516460

 Al 
  0.7415660  0.4942354  0.7426674

 Al 
  0.7381541  0.7628112  0.4878199

