32 
charge = 0 
 Al 
  0.0022759  0.9963715  0.0015556

 Al 
  0.0095948  0.2444136  0.2572496

 Al 
  0.2594154  0.0031385  0.2518279

 Al 
  0.2447354  0.2487030  0.0096765

 Al 
  0.4898458  0.9834662  0.9973727

 Al 
  0.5056000  0.2650067  0.2540555

 Al 
  0.7525840  0.9852606  0.2621194

 Al 
  0.7314638  0.2446624  0.0023675

 Al 
  0.0092223  0.4863930  0.9899126

 Al 
  0.0037214  0.7686835  0.2629598

 Al 
  0.2400933  0.5046396  0.2372333

 Al 
  0.2453542  0.7469556  0.9979741

 Al 
  0.0190312  0.9949990  0.5045245

 Al 
  0.9884771  0.2578956  0.7478553

 Al 
  0.2551569  0.0020061  0.7496968

 Al 
  0.2533662  0.2582867  0.5215447

 Al 
  0.0082558  0.5129622  0.4820529

 Al 
  0.9933481  0.7547126  0.7465336

 Al 
  0.2400512  0.5166712  0.7479791

 Al 
  0.2596344  0.7556878  0.5004591

 Al 
  0.4857123  0.4957613  0.9852483

 Al 
  0.4903223  0.7452032  0.2437936

 Al 
  0.7509641  0.4891639  0.2310257

 Al 
  0.7547238  0.7267982  0.0116467

 Al 
  0.5084241  0.0029615  0.4866801

 Al 
  0.4976845  0.2520506  0.7539713

 Al 
  0.7475373  0.9919162  0.7670202

 Al 
  0.7639337  0.2578189  0.5005656

 Al 
  0.4883149  0.5105861  0.5069984

 Al 
  0.5220484  0.7403594  0.7523811

 Al 
  0.7410079  0.4932615  0.7450572

 Al 
  0.7381021  0.7632011  0.4906601

