32 
charge = 0 
 Al 
  0.0053859  0.9953418  0.0006695

 Al 
  0.0122766  0.2427850  0.2551445

 Al 
  0.2593077  0.9993144  0.2497364

 Al 
  0.2456401  0.2466177  0.0086567

 Al 
  0.4896268  0.9896131  0.9971833

 Al 
  0.5043909  0.2641800  0.2587706

 Al 
  0.7511967  0.9872345  0.2625662

 Al 
  0.7330516  0.2485335  0.9993515

 Al 
  0.0068697  0.4860168  0.9903916

 Al 
  0.0008613  0.7644634  0.2574192

 Al 
  0.2405599  0.5047040  0.2387765

 Al 
  0.2441587  0.7486263  0.9999616

 Al 
  0.0167554  0.9977996  0.5029850

 Al 
  0.9912244  0.2593572  0.7486597

 Al 
  0.2557064  0.9997512  0.7505297

 Al 
  0.2533179  0.2589587  0.5240236

 Al 
  0.0074043  0.5100156  0.4860168

 Al 
  0.9958282  0.7550418  0.7452923

 Al 
  0.2429682  0.5145760  0.7453864

 Al 
  0.2608014  0.7546037  0.5006015

 Al 
  0.4892382  0.4950770  0.9936785

 Al 
  0.4940845  0.7490632  0.2438852

 Al 
  0.7515965  0.4873756  0.2295332

 Al 
  0.7521769  0.7290679  0.0118558

 Al 
  0.5029528  0.0017140  0.4876231

 Al 
  0.4952044  0.2541891  0.7568771

 Al 
  0.7463777  0.9906354  0.7645451

 Al 
  0.7609487  0.2567435  0.5026187

 Al 
  0.4903346  0.5118868  0.5071358

 Al 
  0.5195869  0.7396342  0.7513960

 Al 
  0.7418754  0.4946475  0.7418098

 Al 
  0.7382889  0.7624301  0.4869202

