32 
charge = 0 
 Al 
  0.0057708  0.9952181  0.0005495

 Al 
  0.0125860  0.2425858  0.2548550

 Al 
  0.2592681  0.9988181  0.2494703

 Al 
  0.2457972  0.2463331  0.0084748

 Al 
  0.4896651  0.9904572  0.9971821

 Al 
  0.5041768  0.2640241  0.2593931

 Al 
  0.7510086  0.9876269  0.2624845

 Al 
  0.7333263  0.2489976  0.9989543

 Al 
  0.0064947  0.4860316  0.9905042

 Al 
  0.0005223  0.7638273  0.2566321

 Al 
  0.2406589  0.5046953  0.2390327

 Al 
  0.2439743  0.7488614  0.0002054

 Al 
  0.0164113  0.9982092  0.5028018

 Al 
  0.9916489  0.2594971  0.7487822

 Al 
  0.2557683  0.9994245  0.7506497

 Al 
  0.2532969  0.2590478  0.5242488

 Al 
  0.0072558  0.5096159  0.4865935

 Al 
  0.9961586  0.7550480  0.7451389

 Al 
  0.2433642  0.5142505  0.7450498

 Al 
  0.2609165  0.7544825  0.5006188

 Al 
  0.4897220  0.4950064  0.9948357

 Al 
  0.4946117  0.7495409  0.2439025

 Al 
  0.7517016  0.4871727  0.2294527

 Al 
  0.7518427  0.7294589  0.0118088

 Al 
  0.5021954  0.0015866  0.4878422

 Al 
  0.4948864  0.2544416  0.7572212

 Al 
  0.7462279  0.9905029  0.7641713

 Al 
  0.7604933  0.2565677  0.5028588

 Al 
  0.4906576  0.5119846  0.5070838

 Al 
  0.5191649  0.7396305  0.7512821

 Al 
  0.7420487  0.4948616  0.7414002

 Al 
  0.7383793  0.7621949  0.4865180

