32 
charge = 0 
 Al 
  0.0007277  0.9969098  0.0019776

 Al 
  0.0081481  0.2452428  0.2582088

 Al 
  0.2593906  0.0050196  0.2528687

 Al 
  0.2444644  0.2496126  0.0099488

 Al 
  0.4902022  0.9806829  0.9975583

 Al 
  0.5059353  0.2652059  0.2518266

 Al 
  0.7532214  0.9848238  0.2613484

 Al 
  0.7309626  0.2426501  0.0038030

 Al 
  0.0100329  0.4868175  0.9898730

 Al 
  0.0052411  0.7703827  0.2653396

 Al 
  0.2400351  0.5045369  0.2367111

 Al 
  0.2457700  0.7462663  0.9969605

 Al 
  0.0199173  0.9938815  0.5053648

 Al 
  0.9874338  0.2569959  0.7475459

 Al 
  0.2548562  0.0029701  0.7493738

 Al 
  0.2533204  0.2579736  0.5199483

 Al 
  0.0084959  0.5143174  0.4804044

 Al 
  0.9921737  0.7544020  0.7471833

 Al 
  0.2386973  0.5174447  0.7491745

 Al 
  0.2589785  0.7562955  0.5004034

 Al 
  0.4841245  0.4961438  0.9814205

 Al 
  0.4886701  0.7432441  0.2437949

 Al 
  0.7507438  0.4901502  0.2322100

 Al 
  0.7559552  0.7260779  0.0112631

 Al 
  0.5108683  0.0037214  0.4865947

 Al 
  0.4988961  0.2508750  0.7524207

 Al 
  0.7480991  0.9926811  0.7680090

 Al 
  0.7651032  0.2582038  0.4994604

 Al 
  0.4875786  0.5096777  0.5066618

 Al 
  0.5228281  0.7410784  0.7528823

 Al 
  0.7408408  0.4926984  0.7466710

 Al 
  0.7382877  0.7630167  0.4927875

