32 
charge = 0 
 Al 
  0.9973826  0.9981474  0.0029132

 Al 
  0.0047720  0.2470806  0.2601814

 Al 
  0.2592842  0.0092359  0.2551780

 Al 
  0.2441723  0.2512834  0.0100639

 Al 
  0.4913779  0.9750111  0.9981523

 Al 
  0.5061631  0.2652814  0.2471276

 Al 
  0.7545406  0.9846604  0.2587718

 Al 
  0.7303586  0.2380946  0.0068524

 Al 
  0.0110787  0.4881206  0.9901144

 Al 
  0.0087434  0.7734889  0.2698480

 Al 
  0.2402356  0.5041681  0.2359809

 Al 
  0.2463022  0.7450881  0.9946896

 Al 
  0.0213876  0.9920338  0.5074266

 Al 
  0.9857123  0.2547324  0.7470583

 Al 
  0.2541669  0.0048760  0.7489010

 Al 
  0.2530617  0.2573301  0.5157566

 Al 
  0.0086691  0.5170945  0.4773662

 Al 
  0.9896626  0.7534553  0.7487228

 Al 
  0.2358225  0.5186352  0.7514690

 Al 
  0.2575566  0.7577434  0.5003737

 Al 
  0.4809292  0.4969902  0.9735756

 Al 
  0.4854327  0.7388557  0.2439310

 Al 
  0.7503923  0.4925313  0.2355935

 Al 
  0.7586555  0.7251621  0.0100168

 Al 
  0.5157962  0.0056854  0.4869982

 Al 
  0.5015494  0.2479877  0.7487996

 Al 
  0.7493156  0.9946154  0.7697713

 Al 
  0.7671452  0.2588337  0.4968739

 Al 
  0.4864004  0.5072583  0.5055072

 Al 
  0.5237723  0.7432738  0.7539033

 Al 
  0.7409547  0.4915908  0.7502265

 Al 
  0.7392072  0.7616541  0.4978553

