32 
charge = 0 
 Al 
  0.9990805  0.9975038  0.0024318

 Al 
  0.0065281  0.2461388  0.2591951

 Al 
  0.2593424  0.0070603  0.2539924

 Al 
  0.2442750  0.2504876  0.0100861

 Al 
  0.4907170  0.9778414  0.9978182

 Al 
  0.5061296  0.2653000  0.2494988

 Al 
  0.7538773  0.9846270  0.2602223

 Al 
  0.7305876  0.2404435  0.0053104

 Al 
  0.0106690  0.4873991  0.9899386

 Al 
  0.0069279  0.7719964  0.2676650

 Al 
  0.2400797  0.5043810  0.2362878

 Al 
  0.2460943  0.7456314  0.9958566

 Al 
  0.0207168  0.9928729  0.5063314

 Al 
  0.9865007  0.2559329  0.7472736

 Al 
  0.2545233  0.0039317  0.7490991

 Al 
  0.2532226  0.2576506  0.5180115

 Al 
  0.0086394  0.5157084  0.4788241

 Al 
  0.9909361  0.7539812  0.7479147

 Al 
  0.2372803  0.5181093  0.7503626

 Al 
  0.2582694  0.7569873  0.5003688

 Al 
  0.4825157  0.4965608  0.9774986

 Al 
  0.4870229  0.7411131  0.2438382

 Al 
  0.7505532  0.4912777  0.2337397

 Al 
  0.7572732  0.7255272  0.0107111

 Al 
  0.5133422  0.0046334  0.4867024

 Al 
  0.5001918  0.2495186  0.7506868

 Al 
  0.7486968  0.9935832  0.7689359

 Al 
  0.7661861  0.2585441  0.4982216

 Al 
  0.4869351  0.5085602  0.5061593

 Al 
  0.5234134  0.7420548  0.7533996

 Al 
  0.7408185  0.4921415  0.7484073

 Al 
  0.7386540  0.7624994  0.4952094

