32 
charge = 0 
 Al 
  0.9957019  0.9988268  0.0034095

 Al 
  0.0029355  0.2480360  0.2611220

 Al 
  0.2592322  0.0114945  0.2563821

 Al 
  0.2441575  0.2519541  0.0098646

 Al 
  0.4921675  0.9722873  0.9985644

 Al 
  0.5060195  0.2651490  0.2447911

 Al 
  0.7551903  0.9848931  0.2570615

 Al 
  0.7303005  0.2356839  0.0083733

 Al 
  0.0112123  0.4889535  0.9904052

 Al 
  0.0106158  0.7748156  0.2717799

 Al 
  0.2405029  0.5038996  0.2358014

 Al 
  0.2463727  0.7446748  0.9935053

 Al 
  0.0218801  0.9914249  0.5086332

 Al 
  0.9851022  0.2534342  0.7469185

 Al 
  0.2538006  0.0057757  0.7488058

 Al 
  0.2528353  0.2570294  0.5132481

 Al 
  0.0085775  0.5184186  0.4761039

 Al 
  0.9883991  0.7528377  0.7495904

 Al 
  0.2343535  0.5189941  0.7524033

 Al 
  0.2568957  0.7585280  0.5004443

 Al 
  0.4794280  0.4974073  0.9697861

 Al 
  0.4839637  0.7365415  0.2440696

 Al 
  0.7502624  0.4938889  0.2377110

 Al 
  0.7600601  0.7249901  0.0092211

 Al 
  0.5181575  0.0068524  0.4874647

 Al 
  0.5029293  0.2463145  0.7468158

 Al 
  0.7499406  0.9957514  0.7704779

 Al 
  0.7679434  0.2590701  0.4954680

 Al 
  0.4859920  0.5058227  0.5047374

 Al 
  0.5238800  0.7446933  0.7543500

 Al 
  0.7412517  0.4910487  0.7520680

 Al 
  0.7399411  0.7605106  0.5006225

