32 
charge = 0 
 Al 
  0.9931489  0.9999790  0.0042411

 Al 
  0.9998923  0.2495631  0.2624462

 Al 
  0.2591815  0.0152530  0.2582979

 Al 
  0.2442948  0.2526830  0.0091258

 Al 
  0.4936847  0.9682540  0.9994233

 Al 
  0.5053859  0.2646998  0.2411873

 Al 
  0.7561915  0.9856121  0.2538748

 Al 
  0.7306012  0.2317818  0.0107062

 Al 
  0.0107482  0.4904770  0.9911490

 Al 
  0.0136590  0.7765717  0.2741733

 Al 
  0.2411626  0.5033365  0.2357928

 Al 
  0.2461611  0.7443555  0.9916279

 Al 
  0.0221957  0.9910314  0.5108200

 Al 
  0.9845515  0.2512029  0.7468875

 Al 
  0.2532127  0.0071209  0.7489283

 Al 
  0.2523130  0.2566234  0.5087595

 Al 
  0.0081729  0.5203356  0.4745966

 Al 
  0.9864487  0.7516719  0.7510940

 Al 
  0.2319687  0.5191698  0.7533464

 Al 
  0.2560566  0.7597891  0.5007636

 Al 
  0.4772932  0.4980001  0.9641305

 Al 
  0.4819415  0.7327806  0.2443815

 Al 
  0.7500990  0.4962873  0.2415994

 Al 
  0.7623150  0.7251287  0.0078177

 Al 
  0.5217068  0.0089340  0.4885402

 Al 
  0.5051631  0.2433407  0.7434842

 Al 
  0.7509455  0.9977711  0.7712873

 Al 
  0.7688295  0.2593362  0.4931600

 Al 
  0.4856158  0.5032907  0.5033105

 Al 
  0.5234728  0.7473392  0.7548710

 Al 
  0.7420771  0.4901898  0.7549985

 Al 
  0.7415103  0.7580887  0.5051792

