32 
charge = 0 
 Al 
  0.9946290  0.9992884  0.0037436

 Al 
  0.0017029  0.2486622  0.2616962

 Al 
  0.2592050  0.0130105  0.2571717

 Al 
  0.2441909  0.2523093  0.0096295

 Al 
  0.4927504  0.9705831  0.9988825

 Al 
  0.5058240  0.2650005  0.2432936

 Al 
  0.7556062  0.9851406  0.2558190

 Al 
  0.7303611  0.2340887  0.0093473

 Al 
  0.0111319  0.4895513  0.9906638

 Al 
  0.0118583  0.7755903  0.2728751

 Al 
  0.2407381  0.5036904  0.2357544

 Al 
  0.2463393  0.7444867  0.9927306

 Al 
  0.0220880  0.9911688  0.5094872

 Al 
  0.9848077  0.2525420  0.7468752

 Al 
  0.2535592  0.0063413  0.7488107

 Al 
  0.2526484  0.2568499  0.5114809

 Al 
  0.0084526  0.5192379  0.4754022

 Al 
  0.9875872  0.7523860  0.7501881

 Al 
  0.2333857  0.5191302  0.7528860

 Al 
  0.2565121  0.7590453  0.5005371

 Al 
  0.4785097  0.4976647  0.9674026

 Al 
  0.4830813  0.7350094  0.2441847

 Al 
  0.7501906  0.4948332  0.2392283

 Al 
  0.7609846  0.7249839  0.0086605

 Al 
  0.5196451  0.0076729  0.4878558

 Al 
  0.5038402  0.2451426  0.7454755

 Al 
  0.7503515  0.9965484  0.7708616

 Al 
  0.7683691  0.2591951  0.4945275

 Al 
  0.4857953  0.5048191  0.5041805

 Al 
  0.5238045  0.7457205  0.7545988

 Al 
  0.7415351  0.4906985  0.7532721

 Al 
  0.7405215  0.7596084  0.5024739

