32 
charge = 0 
 Al 
  0.9922727  0.0004294  0.0045654

 Al 
  0.9987340  0.2501299  0.2628558

 Al 
  0.2591802  0.0167021  0.2589958

 Al 
  0.2443926  0.2528204  0.0086902

 Al 
  0.4943357  0.9668779  0.9998292

 Al 
  0.5050047  0.2644535  0.2398928

 Al 
  0.7565479  0.9859698  0.2525605

 Al 
  0.7308574  0.2303339  0.0115304

 Al 
  0.0103213  0.4910957  0.9915363

 Al 
  0.0147963  0.7771063  0.2747871

 Al 
  0.2414843  0.5030766  0.2358844

 Al 
  0.2459594  0.7443740  0.9909485

 Al 
  0.0221227  0.9911069  0.5117321

 Al 
  0.9845045  0.2503292  0.7469482

 Al 
  0.2529961  0.0075937  0.7490817

 Al 
  0.2520544  0.2565059  0.5069316

 Al 
  0.0079353  0.5209655  0.4742377

 Al 
  0.9857581  0.7511806  0.7516942

 Al 
  0.2310529  0.5190820  0.7534565

 Al 
  0.2558500  0.7602507  0.5009764

 Al 
  0.4766088  0.4981820  0.9621789

 Al 
  0.4813165  0.7313673  0.2445238

 Al 
  0.7500433  0.4972712  0.2432095

 Al 
  0.7631479  0.7253230  0.0072744

 Al 
  0.5229568  0.0097743  0.4890451

 Al 
  0.5060034  0.2421291  0.7421935

 Al 
  0.7513230  0.9985892  0.7714643

 Al 
  0.7690139  0.2594005  0.4922986

 Al 
  0.4855725  0.5022759  0.5027251

 Al 
  0.5231127  0.7484469  0.7549738

 Al 
  0.7425053  0.4898631  0.7560789

 Al 
  0.7422343  0.7569922  0.5068969

