32 
charge = 0 
 Al 
  0.9900797  0.0019021  0.0056458

 Al 
  0.9951228  0.2518700  0.2636020

 Al 
  0.2592582  0.0213529  0.2610217

 Al 
  0.2448307  0.2526075  0.0065504

 Al 
  0.4967155  0.9632271  0.0015828

 Al 
  0.5031966  0.2633818  0.2360712

 Al 
  0.7575467  0.9873063  0.2481387

 Al 
  0.7322991  0.2260346  0.0138223

 Al 
  0.0078189  0.4931575  0.9933209

 Al 
  0.0182936  0.7783080  0.2753156

 Al 
  0.2427541  0.5020086  0.2365700

 Al 
  0.2447391  0.7451252  0.9889968

 Al 
  0.0209272  0.9923717  0.5150054

 Al 
  0.9851220  0.2475174  0.7474741

 Al 
  0.2523613  0.0089550  0.7500928

 Al 
  0.2509368  0.2563475  0.5006670

 Al 
  0.0068462  0.5224939  0.4741448

 Al 
  0.9838411  0.7494468  0.7537176

 Al 
  0.2280122  0.5180511  0.7525024

 Al 
  0.2558079  0.7616046  0.5021633

 Al 
  0.4750557  0.4984766  0.9568573

 Al 
  0.4800084  0.7270011  0.2450671

 Al 
  0.7498379  0.5007933  0.2488713

 Al 
  0.7656230  0.7265544  0.0056309

 Al 
  0.5265643  0.0125464  0.4909881

 Al 
  0.5086481  0.2379697  0.7380204

 Al 
  0.7525085  0.0013539  0.7713702

 Al 
  0.7688852  0.2594537  0.4897480

 Al 
  0.4858658  0.4988466  0.5007463

 Al 
  0.5210435  0.7523736  0.7547461

 Al 
  0.7443530  0.4887629  0.7593386

 Al 
  0.7450968  0.7527957  0.5122098

