32 
charge = 0 
 Al 
  0.9903025  0.0017016  0.0054973

 Al 
  0.9955943  0.2516435  0.2635662

 Al 
  0.2592396  0.0207316  0.2607730

 Al 
  0.2447639  0.2527016  0.0069167

 Al 
  0.4963678  0.9636392  0.0012957

 Al 
  0.5034961  0.2635525  0.2365551

 Al 
  0.7574291  0.9871170  0.2487426

 Al 
  0.7320442  0.2265692  0.0135525

 Al 
  0.0082682  0.4928778  0.9930226

 Al 
  0.0178395  0.7781929  0.2753911

 Al 
  0.2425635  0.5021769  0.2364413

 Al 
  0.2449619  0.7449532  0.9892344

 Al 
  0.0211895  0.9920994  0.5145315

 Al 
  0.9849599  0.2478924  0.7473702

 Al 
  0.2524405  0.0087855  0.7499035

 Al 
  0.2511188  0.2563450  0.5015445

 Al 
  0.0070219  0.5223392  0.4740458

 Al 
  0.9840651  0.7496943  0.7534367

 Al 
  0.2284367  0.5182689  0.7527684

 Al 
  0.2557460  0.7614351  0.5019492

 Al 
  0.4751980  0.4984704  0.9574798

 Al 
  0.4801124  0.7275679  0.2449866

 Al 
  0.7498725  0.5002797  0.2480632

 Al 
  0.7653161  0.7263279  0.0058351

 Al 
  0.5261163  0.0121739  0.4907010

 Al 
  0.5082979  0.2385525  0.7385798

 Al 
  0.7523501  0.0009715  0.7714531

 Al 
  0.7689755  0.2594612  0.4900624

 Al 
  0.4857829  0.4993231  0.5010185

 Al 
  0.5214135  0.7518118  0.7548389

 Al 
  0.7440597  0.4889189  0.7589216

 Al 
  0.7446599  0.7534243  0.5115192

