32 
charge = 0 
 Al 
  0.9894510  0.0028687  0.0063648

 Al 
  0.9929756  0.2529021  0.2633954

 Al 
  0.2593671  0.0242364  0.2620539

 Al 
  0.2451624  0.2518365  0.0043773

 Al 
  0.4985087  0.9616814  0.0032486

 Al 
  0.5015197  0.2624511  0.2338832

 Al 
  0.7579996  0.9881912  0.2453233

 Al 
  0.7338127  0.2237959  0.0148891

 Al 
  0.0051334  0.4944693  0.9950658

 Al 
  0.0203777  0.7786384  0.2741993

 Al 
  0.2437144  0.5010693  0.2373422

 Al 
  0.2433852  0.7463034  0.9880117

 Al 
  0.0191241  0.9941698  0.5174051

 Al 
  0.9863051  0.2457898  0.7481474

 Al 
  0.2520284  0.0097013  0.7512697

 Al 
  0.2498985  0.2565046  0.4963665

 Al 
  0.0058834  0.5229753  0.4752141

 Al 
  0.9829773  0.7482080  0.7550926

 Al 
  0.2258985  0.5165883  0.7505148

 Al 
  0.2564626  0.7623509  0.5034763

 Al 
  0.4747302  0.4983243  0.9543488

 Al 
  0.4799032  0.7244443  0.2454854

 Al 
  0.7496213  0.5034776  0.2529231

 Al 
  0.7669162  0.7279454  0.0047807

 Al 
  0.5285419  0.0142394  0.4924311

 Al 
  0.5102804  0.2351270  0.7353980

 Al 
  0.7532672  0.0031929  0.7705831

 Al 
  0.7680635  0.2593287  0.4884436

 Al 
  0.4864920  0.4965064  0.4994617

 Al 
  0.5188060  0.7552027  0.7539453

 Al 
  0.7459680  0.4879647  0.7612074

 Al 
  0.7474234  0.7495112  0.5153507

