32 
charge = 0 
 Al 
  0.9894411  0.0032437  0.0066395

 Al 
  0.9922095  0.2532746  0.2631182

 Al 
  0.2594166  0.0252822  0.2623707

 Al 
  0.2452874  0.2513935  0.0033303

 Al 
  0.4992575  0.9612977  0.0040406

 Al 
  0.5007685  0.2620415  0.2330961

 Al 
  0.7581135  0.9885080  0.2443072

 Al 
  0.7345305  0.2231140  0.0151799

 Al 
  0.0038525  0.4949507  0.9958975

 Al 
  0.0211376  0.7786657  0.2734147

 Al 
  0.2440944  0.5006460  0.2377061

 Al 
  0.2427268  0.7469222  0.9877061

 Al 
  0.0181612  0.9950894  0.5183790

 Al 
  0.9869610  0.2451686  0.7484902

 Al 
  0.2519219  0.0099611  0.7518526

 Al 
  0.2494134  0.2566408  0.4946810

 Al 
  0.0054651  0.5230323  0.4759195

 Al 
  0.9827570  0.7477105  0.7556334

 Al 
  0.2250433  0.5158173  0.7494134

 Al 
  0.2568883  0.7626120  0.5041198

 Al 
  0.4747723  0.4981721  0.9536050

 Al 
  0.4800530  0.7235459  0.2456574

 Al 
  0.7495087  0.5046223  0.2545641

 Al 
  0.7673085  0.7286298  0.0045258

 Al 
  0.5292250  0.0148210  0.4929979

 Al 
  0.5108819  0.2340268  0.7344364

 Al 
  0.7535654  0.0038921  0.7700856

 Al 
  0.7675622  0.2592384  0.4880538

 Al 
  0.4868447  0.4955807  0.4989840

 Al 
  0.5177219  0.7563475  0.7534602

 Al 
  0.7466846  0.4876269  0.7618608

 Al 
  0.7484233  0.7481239  0.5164732

