32 
charge = 0 
 Al 
  0.9903272  0.0043414  0.0073783

 Al 
  0.9902146  0.2542684  0.2615613

 Al 
  0.2595515  0.0279701  0.2629721

 Al 
  0.2456091  0.2496386  0.9995013

 Al 
  0.5016398  0.9609561  0.0069180

 Al 
  0.4982971  0.2606839  0.2309415

 Al 
  0.7581976  0.9892728  0.2417776

 Al 
  0.7370662  0.2219259  0.0155438

 Al 
  0.9993354  0.4962155  0.9989233

 Al 
  0.0232278  0.7783934  0.2699520

 Al 
  0.2451648  0.4992005  0.2389535

 Al 
  0.2403631  0.7492377  0.9870922

 Al 
  0.0143755  0.9984902  0.5212997

 Al 
  0.9895810  0.2435969  0.7497884

 Al 
  0.2517041  0.0106195  0.7539738

 Al 
  0.2476783  0.2573313  0.4897889

 Al 
  0.0041186  0.5227489  0.4790196

 Al 
  0.9825689  0.7462180  0.7572360

 Al 
  0.2224296  0.5128075  0.7450968

 Al 
  0.2587100  0.7633224  0.5064539

 Al 
  0.4754715  0.4974048  0.9521855

 Al 
  0.4811754  0.7213046  0.2461772

 Al 
  0.7490694  0.5083684  0.2595725

 Al 
  0.7679694  0.7311593  0.0040790

 Al 
  0.5309403  0.0160982  0.4945473

 Al 
  0.5124907  0.2309316  0.7319229

 Al 
  0.7544874  0.0058178  0.7679174

 Al 
  0.7654596  0.2588090  0.4873744

 Al 
  0.4882877  0.4927999  0.4977155

 Al 
  0.5137691  0.7598349  0.7514009

 Al 
  0.7490706  0.4865106  0.7635167

 Al 
  0.7516509  0.7437218  0.5194186

