32 
charge = 0 
 Al 
  0.9897072  0.0037981  0.0070269

 Al 
  0.9911551  0.2537944  0.2624796

 Al 
  0.2594884  0.0267202  0.2627382

 Al 
  0.2454594  0.2505903  0.0015470

 Al 
  0.5004232  0.9609747  0.0053834

 Al 
  0.4995681  0.2613868  0.2319836

 Al 
  0.7582063  0.9889288  0.2429323

 Al 
  0.7357284  0.2223479  0.0154609

 Al 
  0.0017140  0.4956203  0.9973071

 Al 
  0.0222167  0.7785976  0.2718863

 Al 
  0.2446488  0.4999542  0.2383050

 Al 
  0.2416155  0.7479989  0.9873434

 Al 
  0.0164373  0.9966747  0.5198468

 Al 
  0.9881479  0.2443221  0.7490879

 Al 
  0.2517932  0.0103126  0.7528452

 Al 
  0.2485991  0.2569316  0.4921972

 Al 
  0.0048042  0.5229766  0.4772858

 Al 
  0.9825689  0.7469605  0.7564390

 Al 
  0.2237414  0.5144461  0.7474358

 Al 
  0.2576989  0.7629771  0.5052151

 Al 
  0.4750186  0.4978466  0.9527474

 Al 
  0.4804886  0.7223355  0.2459173

 Al 
  0.7493070  0.5064353  0.2570553

 Al 
  0.7677442  0.7298030  0.0042399

 Al 
  0.5301458  0.0155599  0.4938122

 Al 
  0.5117271  0.2324316  0.7331011

 Al 
  0.7540184  0.0048933  0.7691290

 Al 
  0.7666217  0.2590528  0.4876194

 Al 
  0.4874932  0.4941921  0.4983157

 Al 
  0.5158779  0.7580838  0.7525432

 Al 
  0.7478355  0.4870910  0.7627469

 Al 
  0.7499988  0.7459631  0.5180251

