32 
charge = 0 
 Al 
  0.9898743  0.0039800  0.0071494

 Al 
  0.9908284  0.2539577  0.2622048

 Al 
  0.2595119  0.0271608  0.2628323

 Al 
  0.2455126  0.2502884  0.0008948

 Al 
  0.5008230  0.9609339  0.0058735

 Al 
  0.4991510  0.2611579  0.2316284

 Al 
  0.7582149  0.9890525  0.2425202

 Al 
  0.7361603  0.2221672  0.0155116

 Al 
  0.0009467  0.4958282  0.9978231

 Al 
  0.0225608  0.7785444  0.2712848

 Al 
  0.2448258  0.4997092  0.2385167

 Al 
  0.2412133  0.7483949  0.9872469

 Al 
  0.0157876  0.9972563  0.5203344

 Al 
  0.9885983  0.2440659  0.7493094

 Al 
  0.2517598  0.0104203  0.7532078

 Al 
  0.2483033  0.2570529  0.4913841

 Al 
  0.0045777  0.5229209  0.4778229

 Al 
  0.9825479  0.7467118  0.7567064

 Al 
  0.2233045  0.5139288  0.7466932

 Al 
  0.2580145  0.7630934  0.5056136

 Al 
  0.4751460  0.4977117  0.9525283

 Al 
  0.4806891  0.7219704  0.2460039

 Al 
  0.7492315  0.5070677  0.2578932

 Al 
  0.7678432  0.7302349  0.0041718

 Al 
  0.5304255  0.0157641  0.4940684

 Al 
  0.5119920  0.2319180  0.7326890

 Al 
  0.7541718  0.0052114  0.7687540

 Al 
  0.7662579  0.2589785  0.4875167

 Al 
  0.4877419  0.4937280  0.4981065

 Al 
  0.5152035  0.7586654  0.7521868

 Al 
  0.7482377  0.4869029  0.7630167

 Al 
  0.7505421  0.7452230  0.5185077

