32 
charge = 0 
 Al 
  0.9900809  0.0041619  0.0072670

 Al 
  0.9905153  0.2541161  0.2618979

 Al 
  0.2595317  0.0275778  0.2629103

 Al 
  0.2455621  0.2499703  0.0002116

 Al 
  0.5012289  0.9609277  0.0063846

 Al 
  0.4987265  0.2609227  0.2312819

 Al 
  0.7582125  0.9891664  0.2421353

 Al 
  0.7366059  0.2220249  0.0155401

 Al 
  0.0001522  0.4960262  0.9983627

 Al 
  0.0228986  0.7784763  0.2706388

 Al 
  0.2449990  0.4994579  0.2387332

 Al 
  0.2407950  0.7488082  0.9871628

 Al 
  0.0150995  0.9978615  0.5208195

 Al 
  0.9890760  0.2438233  0.7495433

 Al 
  0.2517289  0.0105230  0.7535840

 Al 
  0.2479964  0.2571853  0.4905809

 Al 
  0.0043488  0.5228442  0.4784021

 Al 
  0.9825479  0.7464643  0.7569712

 Al 
  0.2228664  0.5133830  0.7459136

 Al 
  0.2583523  0.7632085  0.5060269

 Al 
  0.4752983  0.4975645  0.9523402

 Al 
  0.4809180  0.7216264  0.2460905

 Al 
  0.7491523  0.5077125  0.2587322

 Al 
  0.7679199  0.7306866  0.0041186

 Al 
  0.5306903  0.0159448  0.4943146

 Al 
  0.5122469  0.2314180  0.7322954

 Al 
  0.7543290  0.0055195  0.7683493

 Al 
  0.7658705  0.2588968  0.4874350

 Al 
  0.4880068  0.4932639  0.4979073

 Al 
  0.5145005  0.7592495  0.7518056

 Al 
  0.7486498  0.4867098  0.7632729

 Al 
  0.7510928  0.7444755  0.5189718

