32 
charge = 0 
 Al 
  0.9895797  0.0036137  0.0069019

 Al 
  0.9914942  0.2536261  0.2627234

 Al 
  0.2594661  0.0262598  0.2626306

 Al 
  0.2454049  0.2508762  0.0021707

 Al 
  0.5000285  0.9610490  0.0049144

 Al 
  0.4999777  0.2616108  0.2323462

 Al 
  0.7581865  0.9887963  0.2433691

 Al 
  0.7353138  0.2225670  0.0153891

 Al 
  0.0024553  0.4954049  0.9968145

 Al 
  0.0218653  0.7786347  0.2724420

 Al 
  0.2444669  0.5001918  0.2380996

 Al 
  0.2420029  0.7476202  0.9874511

 Al 
  0.0170499  0.9961190  0.5193580

 Al 
  0.9877246  0.2445919  0.7488775

 Al 
  0.2518328  0.0102000  0.7524986

 Al 
  0.2488825  0.2568227  0.4930177

 Al 
  0.0050282  0.5230149  0.4767883

 Al 
  0.9826122  0.7472105  0.7561717

 Al 
  0.2241770  0.5149324  0.7481375

 Al 
  0.2574056  0.7628583  0.5048339

 Al 
  0.4749121  0.4979692  0.9529999

 Al 
  0.4803153  0.7227204  0.2458307

 Al 
  0.7493787  0.5058178  0.2562212

 Al 
  0.7676204  0.7293921  0.0043216

 Al 
  0.5298525  0.0153334  0.4935473

 Al 
  0.5114536  0.2329538  0.7335305

 Al 
  0.7538661  0.0045666  0.7694768

 Al 
  0.7669608  0.2591208  0.4877432

 Al 
  0.4872618  0.4946550  0.4985310

 Al 
  0.5165215  0.7575021  0.7528736

 Al 
  0.7474420  0.4872741  0.7624647

 Al 
  0.7494641  0.7466932  0.5175251

