32 
charge = 0 
 Al 
  0.9942292  0.0058339  0.0080615

 Al 
  0.9881652  0.2553624  0.2573313

 Al 
  0.2595478  0.0300728  0.2627667

 Al 
  0.2458851  0.2462935  0.9921786

 Al 
  0.5053574  0.9627048  0.0123595

 Al 
  0.4945423  0.2584402  0.2282412

 Al 
  0.7576085  0.9897456  0.2401342

 Al 
  0.7415734  0.2230360  0.0144844

 Al 
  0.9914559  0.4973702  0.0047918

 Al 
  0.0257821  0.7769838  0.2624301

 Al 
  0.2462378  0.4967799  0.2409695

 Al 
  0.2361430  0.7534528  0.9870390

 Al 
  0.0066494  0.0046817  0.5250470

 Al 
  0.9950040  0.2424311  0.7524046

 Al 
  0.2516818  0.0111950  0.7577323

 Al 
  0.2444334  0.2591010  0.4836902

 Al 
  0.0021435  0.5210596  0.4859165

 Al 
  0.9837817  0.7442849  0.7594451

 Al 
  0.2188506  0.5065752  0.7368162

 Al 
  0.2625229  0.7643669  0.5106022

 Al 
  0.4778315  0.4955188  0.9521360

 Al 
  0.4844921  0.7195547  0.2468529

 Al 
  0.7482724  0.5144795  0.2667331

 Al 
  0.7671576  0.7361542  0.0043612

 Al 
  0.5323412  0.0160537  0.4958121

 Al 
  0.5140191  0.2275877  0.7298154

 Al 
  0.7560047  0.0077991  0.7630266

 Al 
  0.7609945  0.2577954  0.4878137

 Al 
  0.4913965  0.4888062  0.4965224

 Al 
  0.5063017  0.7648458  0.7469494

 Al 
  0.7529726  0.4844810  0.7650166

 Al 
  0.7566185  0.7371541  0.5225224

