32 
charge = 0 
 Al 
  0.9931352  0.0055319  0.0079662

 Al 
  0.9885117  0.2551693  0.2584191

 Al 
  0.2595862  0.0298624  0.2629338

 Al 
  0.2458455  0.2470472  0.9938877

 Al 
  0.5045579  0.9620996  0.0110972

 Al 
  0.4953134  0.2589364  0.2287770

 Al 
  0.7577979  0.9897146  0.2402282

 Al 
  0.7405524  0.2224741  0.0148879

 Al 
  0.9932120  0.4972093  0.0033983

 Al 
  0.0252921  0.7773934  0.2642283

 Al 
  0.2460844  0.4973083  0.2405388

 Al 
  0.2370885  0.7525110  0.9869610

 Al 
  0.0084847  0.0032894  0.5243503

 Al 
  0.9937119  0.2425363  0.7517784

 Al 
  0.2516546  0.0111244  0.7569068

 Al 
  0.2451896  0.2586543  0.4848275

 Al 
  0.0025457  0.5215559  0.4842483

 Al 
  0.9833585  0.7446475  0.7589958

 Al 
  0.2195461  0.5080776  0.7387011

 Al 
  0.2616318  0.7641243  0.5096827

 Al 
  0.4772128  0.4959891  0.9519541

 Al 
  0.4836345  0.7197465  0.2467242

 Al 
  0.7484407  0.5131429  0.2652629

 Al 
  0.7675375  0.7349599  0.0042052

 Al 
  0.5321791  0.0163074  0.4956908

 Al 
  0.5138038  0.2281286  0.7300579

 Al 
  0.7556594  0.0074922  0.7642245

 Al 
  0.7620600  0.2580429  0.4875724

 Al 
  0.4906391  0.4896404  0.4966920

 Al 
  0.5080355  0.7638075  0.7480187

 Al 
  0.7521212  0.4849624  0.7648000

 Al 
  0.7555740  0.7385117  0.5219828

