32 
charge = 0 
 Al 
  0.9960249  0.0062447  0.0081444

 Al 
  0.9877630  0.2555888  0.2556222

 Al 
  0.2594315  0.0300827  0.2623917

 Al 
  0.2459297  0.2452292  0.9896503

 Al 
  0.5064725  0.9638001  0.0142159

 Al 
  0.4935214  0.2577298  0.2275184

 Al 
  0.7572991  0.9897258  0.2402913

 Al 
  0.7430597  0.2241745  0.0137233

 Al 
  0.9889424  0.4975026  0.0069006

 Al 
  0.0264108  0.7762834  0.2597446

 Al 
  0.2463603  0.4960460  0.2415611

 Al 
  0.2347990  0.7547931  0.9872420

 Al 
  0.0039033  0.0066742  0.5258836

 Al 
  0.9969358  0.2424496  0.7533513

 Al 
  0.2517512  0.0112235  0.7588746

 Al 
  0.2433060  0.2597891  0.4822917

 Al 
  0.0016051  0.5202094  0.4884251

 Al 
  0.9845552  0.7438444  0.7600540

 Al 
  0.2179867  0.5042919  0.7341109

 Al 
  0.2638149  0.7647443  0.5118942

 Al 
  0.4788006  0.4947948  0.9525754

 Al 
  0.4858311  0.7194854  0.2470125

 Al 
  0.7480645  0.5163680  0.2687132

 Al 
  0.7663965  0.7379709  0.0046767

 Al 
  0.5324093  0.0154089  0.4957997

 Al 
  0.5141862  0.2270333  0.7297201

 Al 
  0.7565145  0.0080924  0.7611999

 Al 
  0.7594030  0.2574204  0.4883013

 Al 
  0.4925561  0.4876541  0.4963826

 Al 
  0.5037449  0.7662653  0.7453492

 Al 
  0.7541780  0.4837434  0.7652109

 Al 
  0.7580429  0.7353361  0.5231696

