32 
charge = 0 
 Al 
  0.9917133  0.0050418  0.0077620

 Al 
  0.9891515  0.2548228  0.2599178

 Al 
  0.2595973  0.0292560  0.2630538

 Al 
  0.2457651  0.2481919  0.9964012

 Al 
  0.5033117  0.9614128  0.0092310

 Al 
  0.4965645  0.2596926  0.2296545

 Al 
  0.7580281  0.9895896  0.2406713

 Al 
  0.7390203  0.2219655  0.0153173

 Al 
  0.9958839  0.4968615  0.0013811

 Al 
  0.0244666  0.7779107  0.2668383

 Al 
  0.2457539  0.4981251  0.2398619

 Al 
  0.2385241  0.7510742  0.9869388

 Al 
  0.0111542  0.0011794  0.5231338

 Al 
  0.9918358  0.2428667  0.7508750

 Al 
  0.2516472  0.0109512  0.7556284

 Al 
  0.2463009  0.2580293  0.4867989

 Al 
  0.0032003  0.5221771  0.4818474

 Al 
  0.9828833  0.7452762  0.7582682

 Al 
  0.2207205  0.5102346  0.7415388

 Al 
  0.2603126  0.7637753  0.5082731

 Al 
  0.4763687  0.4966512  0.9518774

 Al 
  0.4824551  0.7202527  0.2465051

 Al 
  0.7487117  0.5110848  0.2628942

 Al 
  0.7678952  0.7332397  0.0040666

 Al 
  0.5317670  0.0164200  0.4953245

 Al 
  0.5133384  0.2291780  0.7306792

 Al 
  0.7551458  0.0068771  0.7659299

 Al 
  0.7636070  0.2583981  0.4873583

 Al 
  0.4895587  0.4909633  0.4970546

 Al 
  0.5105948  0.7621479  0.7495644

 Al 
  0.7508069  0.4856567  0.7643446

 Al 
  0.7539144  0.7406960  0.5210089

