32 
charge = 0 
 Al 
  0.0005247  0.0069848  0.0081258

 Al 
  0.9873187  0.2558153  0.2516175

 Al 
  0.2588387  0.0287585  0.2610168

 Al 
  0.2460534  0.2433011  0.9843300

 Al 
  0.5085355  0.9670412  0.0180424

 Al 
  0.4919261  0.2563041  0.2262165

 Al 
  0.7566321  0.9894795  0.2419274

 Al 
  0.7461388  0.2279070  0.0113695

 Al 
  0.9839327  0.4973850  0.0116814

 Al 
  0.0273489  0.7743342  0.2540048

 Al 
  0.2461264  0.4947329  0.2426019

 Al 
  0.2322769  0.7573462  0.9880352

 Al 
  0.9979766  0.0105737  0.5267388

 Al 
  0.0010668  0.2432454  0.7554329

 Al 
  0.2520086  0.0108695  0.7608200

 Al 
  0.2408247  0.2612841  0.4805381

 Al 
  0.0006658  0.5178159  0.4938308

 Al 
  0.9868682  0.7433382  0.7611244

 Al 
  0.2170103  0.4991436  0.7288810

 Al 
  0.2662739  0.7656997  0.5142394

 Al 
  0.4810678  0.4931612  0.9541867

 Al 
  0.4889312  0.7202626  0.2472365

 Al 
  0.7478986  0.5199767  0.2720992

 Al 
  0.7639053  0.7421019  0.0056668

 Al 
  0.5317942  0.0128508  0.4949136

 Al 
  0.5138570  0.2268959  0.7306915

 Al 
  0.7575924  0.0080256  0.7571246

 Al 
  0.7559972  0.2566012  0.4898458

 Al 
  0.4952082  0.4855218  0.4965695

 Al 
  0.4983924  0.7688134  0.7419794

 Al 
  0.7565207  0.4820380  0.7650698

 Al 
  0.7604883  0.7323907  0.5240409

