32 
charge = 0 
 Al 
  0.0018192  0.0071457  0.0080813

 Al 
  0.9872977  0.2558042  0.2505198

 Al 
  0.2585800  0.0280667  0.2605156

 Al 
  0.2461202  0.2429310  0.9830107

 Al 
  0.5089748  0.9681179  0.0189619

 Al 
  0.4916774  0.2559576  0.2259368

 Al 
  0.7564898  0.9893879  0.2426835

 Al 
  0.7469036  0.2291792  0.0105762

 Al 
  0.9827348  0.4972699  0.0129895

 Al 
  0.0274813  0.7737006  0.2525593

 Al 
  0.2459371  0.4944780  0.2428073

 Al 
  0.2317559  0.7579068  0.9883248

 Al 
  0.9964606  0.0114697  0.5266930

 Al 
  0.0021039  0.2436414  0.7559725

 Al 
  0.2520989  0.0106468  0.7611529

 Al 
  0.2401639  0.2616455  0.4803982

 Al 
  0.0004604  0.5170363  0.4951983

 Al 
  0.9876380  0.7433234  0.7613423

 Al 
  0.2170326  0.4977588  0.7277239

 Al 
  0.2667776  0.7659918  0.5146985

 Al 
  0.4816952  0.4927318  0.9547634

 Al 
  0.4897728  0.7206982  0.2472675

 Al 
  0.7479555  0.5207799  0.2727489

 Al 
  0.7630427  0.7432330  0.0059836

 Al 
  0.5314328  0.0118930  0.4944656

 Al 
  0.5135860  0.2271150  0.7312460

 Al 
  0.7578560  0.0078313  0.7560554

 Al 
  0.7551322  0.2563883  0.4903544

 Al 
  0.4959309  0.4850564  0.4967452

 Al 
  0.4970707  0.7693431  0.7411688

 Al 
  0.7570652  0.4815677  0.7648904

 Al 
  0.7609500  0.7319031  0.5241659

