32 
charge = 0 
 Al 
  0.9998750  0.0068969  0.0081419

 Al 
  0.9873447  0.2558079  0.2521756

 Al 
  0.2589525  0.0290543  0.2612507

 Al 
  0.2460274  0.2435176  0.9850243

 Al 
  0.5082917  0.9665276  0.0175511

 Al 
  0.4920846  0.2564861  0.2263712

 Al 
  0.7567125  0.9895240  0.2415945

 Al 
  0.7457366  0.2273006  0.0117482

 Al 
  0.9845688  0.4974321  0.0110180

 Al 
  0.0272598  0.7746374  0.2547609

 Al 
  0.2462019  0.4948814  0.2424843

 Al 
  0.2325726  0.7570368  0.9879004

 Al 
  0.9987662  0.0100898  0.5267128

 Al 
  0.0005223  0.2430734  0.7551532

 Al 
  0.2519665  0.0109586  0.7606146

 Al 
  0.2411638  0.2610898  0.4806656

 Al 
  0.0007760  0.5181897  0.4931154

 Al 
  0.9865007  0.7433667  0.7610019

 Al 
  0.2170524  0.4998515  0.7295183

 Al 
  0.2659856  0.7655574  0.5139721

 Al 
  0.4807497  0.4933840  0.9539169

 Al 
  0.4885018  0.7200795  0.2472167

 Al 
  0.7478887  0.5195374  0.2717229

 Al 
  0.7643124  0.7415276  0.0055109

 Al 
  0.5319452  0.0132951  0.4951079

 Al 
  0.5139634  0.2268254  0.7304577

 Al 
  0.7574514  0.0080949  0.7576766

 Al 
  0.7564477  0.2567113  0.4895995

 Al 
  0.4948394  0.4857779  0.4965014

 Al 
  0.4990892  0.7685164  0.7424137

 Al 
  0.7562287  0.4822769  0.7651379

 Al 
  0.7602186  0.7326927  0.5239617

