32 
charge = 0 
 Al 
  0.0050146  0.0074712  0.0079093

 Al 
  0.9874152  0.2556334  0.2479048

 Al 
  0.2577496  0.0257772  0.2590812

 Al 
  0.2464247  0.2423989  0.9801148

 Al 
  0.5097916  0.9711215  0.0209086

 Al 
  0.4914237  0.2551903  0.2253960

 Al 
  0.7562831  0.9891800  0.2450906

 Al 
  0.7486189  0.2326890  0.0083659

 Al 
  0.9801247  0.4968950  0.0161712

 Al 
  0.0275543  0.7719308  0.2493453

 Al 
  0.2452515  0.4940746  0.2431588

 Al 
  0.2308957  0.7589847  0.9891466

 Al 
  0.9930140  0.0133100  0.5260061

 Al 
  0.0043995  0.2449050  0.7571952

 Al 
  0.2523427  0.0098139  0.7615044

 Al 
  0.2385810  0.2623496  0.4806458

 Al 
  0.0000012  0.5148780  0.4982538

 Al 
  0.9897654  0.7435127  0.7617370

 Al 
  0.2177466  0.4944644  0.7254987

 Al 
  0.2675734  0.7667591  0.5153940

 Al 
  0.4832372  0.4917516  0.9564168

 Al 
  0.4917764  0.7221759  0.2472972

 Al 
  0.7483404  0.5223578  0.2738231

 Al 
  0.7606109  0.7460014  0.0067806

 Al 
  0.5301643  0.0091171  0.4930127

 Al 
  0.5125811  0.2280716  0.7331147

 Al 
  0.7584055  0.0070380  0.7535889

 Al 
  0.7531607  0.2558821  0.4917158

 Al 
  0.4976783  0.4841456  0.4974110

 Al 
  0.4941760  0.7703146  0.7395042

 Al 
  0.7582211  0.4804453  0.7641812

 Al 
  0.7616764  0.7313598  0.5243255

