32 
charge = 0 
 Al 
  0.0043810  0.0074130  0.0079501

 Al 
  0.9873731  0.2556854  0.2484134

 Al 
  0.2579377  0.0262982  0.2593881

 Al 
  0.2463455  0.2424583  0.9806495

 Al 
  0.5096592  0.9704817  0.0205584

 Al 
  0.4914336  0.2553339  0.2254864

 Al 
  0.7563054  0.9892171  0.2445498

 Al 
  0.7482971  0.2319514  0.0088350

 Al 
  0.9806074  0.4969766  0.0155425

 Al 
  0.0275692  0.7723095  0.2499443

 Al 
  0.2454124  0.4941278  0.2431055

 Al 
  0.2310146  0.7588053  0.9889721

 Al 
  0.9936662  0.0129845  0.5262103

 Al 
  0.0039751  0.2446228  0.7569650

 Al 
  0.2522920  0.0100144  0.7614908

 Al 
  0.2388904  0.2622345  0.4805319

 Al 
  0.0000916  0.5153359  0.4976833

 Al 
  0.9893149  0.7434496  0.7616752

 Al 
  0.2175239  0.4951054  0.7258675

 Al 
  0.2674694  0.7666007  0.5153086

 Al 
  0.4829291  0.4919360  0.9560603

 Al 
  0.4913866  0.7218356  0.2472959

 Al 
  0.7482340  0.5220893  0.2736684

 Al 
  0.7611294  0.7454507  0.0066234

 Al 
  0.5304614  0.0097149  0.4933394

 Al 
  0.5128199  0.2278377  0.7326877

 Al 
  0.7583102  0.0072311  0.7540580

 Al 
  0.7535357  0.2559811  0.4914336

 Al 
  0.4973343  0.4843003  0.4972526

 Al 
  0.4947094  0.7701599  0.7397926

 Al 
  0.7580120  0.4806631  0.7643532

 Al 
  0.7615786  0.7313920  0.5243070

