32 
charge = 0 
 Al 
  0.0087434  0.0077509  0.0075801

 Al 
  0.9878521  0.2551223  0.2449941

 Al 
  0.2563846  0.0219605  0.2570269

 Al 
  0.2471759  0.2425771  0.9773712

 Al 
  0.5102841  0.9754864  0.0225929

 Al 
  0.4917603  0.2544156  0.2250520

 Al 
  0.7563982  0.9890476  0.2489728

 Al 
  0.7503725  0.2375080  0.0052324

 Al 
  0.9775754  0.4964061  0.0198988

 Al 
  0.0271051  0.7693307  0.2461957

 Al 
  0.2440684  0.4940238  0.2433073

 Al 
  0.2308017  0.7596641  0.9903173

 Al 
  0.9894634  0.0148421  0.5240298

 Al 
  0.0065913  0.2468764  0.7584191

 Al 
  0.2526509  0.0082063  0.7609326

 Al 
  0.2367581  0.2626924  0.4819303

 Al 
  0.9994183  0.5117989  0.5013007

 Al 
  0.9927714  0.7441488  0.7619487

 Al 
  0.2200535  0.4907876  0.7240978

 Al 
  0.2675264  0.7677578  0.5152789

 Al 
  0.4851282  0.4907925  0.9588857

 Al 
  0.4940312  0.7247166  0.2472736

 Al 
  0.7493132  0.5234753  0.2741708

 Al 
  0.7571086  0.7493379  0.0076556

 Al 
  0.5278588  0.0050765  0.4906824

 Al 
  0.5107297  0.2298748  0.7362408

 Al 
  0.7587978  0.0055109  0.7510049

 Al 
  0.7510445  0.2552819  0.4935139

 Al 
  0.4996980  0.4834959  0.4986449

 Al 
  0.4914435  0.7708344  0.7382865

 Al 
  0.7592842  0.4792362  0.7628150

 Al 
  0.7618101  0.7319638  0.5243429

