32 
charge = 0 
 Al 
  0.0068957  0.0076234  0.0077632

 Al 
  0.9875934  0.2554242  0.2464185

 Al 
  0.2571197  0.0240186  0.2580998

 Al 
  0.2467365  0.2423704  0.9786434

 Al 
  0.5101022  0.9731833  0.0218405

 Al 
  0.4915066  0.2547857  0.2251794

 Al 
  0.7562843  0.9890921  0.2468937

 Al 
  0.7495334  0.2350156  0.0068709

 Al 
  0.9787795  0.4966437  0.0180424

 Al 
  0.0274095  0.7707069  0.2476759

 Al 
  0.2447069  0.4939904  0.2432677

 Al 
  0.2307076  0.7594104  0.9897060

 Al 
  0.9911626  0.0141639  0.5251832

 Al 
  0.0055740  0.2458331  0.7578424

 Al 
  0.2524974  0.0090998  0.7613633

 Al 
  0.2376615  0.2626033  0.4811618

 Al 
  0.9997253  0.5134139  0.4998564

 Al 
  0.9911997  0.7437763  0.7618781

 Al 
  0.2186810  0.4925895  0.7246225

 Al 
  0.2676996  0.7672479  0.5154757

 Al 
  0.4841691  0.4912368  0.9575751

 Al 
  0.4929211  0.7233367  0.2472910

 Al 
  0.7487525  0.5230211  0.2741213

 Al 
  0.7589463  0.7476573  0.0072360

 Al 
  0.5291297  0.0071940  0.4919249

 Al 
  0.5117457  0.2288921  0.7345589

 Al 
  0.7586444  0.0063549  0.7522462

 Al 
  0.7520779  0.2555851  0.4925920

 Al 
  0.4986944  0.4837607  0.4979667

 Al 
  0.4927083  0.7706648  0.7387790

 Al 
  0.7587929  0.4798154  0.7635736

 Al 
  0.7618398  0.7314885  0.5243503

