32 
charge = 0 
 Al 
  0.0075157  0.0076692  0.0077063

 Al 
  0.9876702  0.2553339  0.2459371

 Al 
  0.2568870  0.0233664  0.2577521

 Al 
  0.2468677  0.2424125  0.9781966

 Al 
  0.5101777  0.9739221  0.0221115

 Al 
  0.4915734  0.2546582  0.2251262

 Al 
  0.7563079  0.9890711  0.2475558

 Al 
  0.7498206  0.2358274  0.0063413

 Al 
  0.9783637  0.4965621  0.0186637

 Al 
  0.0273279  0.7702663  0.2471610

 Al 
  0.2445040  0.4939879  0.2432887

 Al 
  0.2307064  0.7595144  0.9899040

 Al 
  0.9905784  0.0144102  0.5248366

 Al 
  0.0059304  0.2461697  0.7580429

 Al 
  0.2525494  0.0088238  0.7612532

 Al 
  0.2373595  0.2626528  0.4813920

 Al 
  0.9996275  0.5128929  0.5003552

 Al 
  0.9917083  0.7438889  0.7619103

 Al 
  0.2190869  0.4919794  0.7244084

 Al 
  0.2676773  0.7674162  0.5154423

 Al 
  0.4844847  0.4910796  0.9579934

 Al 
  0.4932949  0.7237711  0.2472860

 Al 
  0.7489221  0.5231956  0.2741646

 Al 
  0.7583535  0.7482130  0.0073808

 Al 
  0.5287325  0.0065096  0.4915276

 Al 
  0.5114277  0.2292015  0.7350923

 Al 
  0.7587050  0.0060913  0.7518205

 Al 
  0.7517289  0.2554861  0.4928939

 Al 
  0.4990310  0.4836592  0.4981783

 Al 
  0.4922640  0.7707415  0.7385884

 Al 
  0.7589649  0.4796161  0.7633384

 Al 
  0.7618509  0.7316086  0.5243503

