32 
charge = 0 
 Al 
  0.0105378  0.0078573  0.0073561

 Al 
  0.9881974  0.2547151  0.2436377

 Al 
  0.2555381  0.0195980  0.2558611

 Al 
  0.2477637  0.2430387  0.9763143

 Al 
  0.5103386  0.9780617  0.0231560

 Al 
  0.4921786  0.2540802  0.2250285

 Al 
  0.7566469  0.9890599  0.2513279

 Al 
  0.7511398  0.2401577  0.0034491

 Al 
  0.9765074  0.4962093  0.0217316

 Al 
  0.0266125  0.7677788  0.2449136

 Al 
  0.2433456  0.4941723  0.2432813

 Al 
  0.2312126  0.7597322  0.9909856

 Al 
  0.9879276  0.0153433  0.5225261

 Al 
  0.0074365  0.2480174  0.7589117

 Al 
  0.2527944  0.0071234  0.7601926

 Al 
  0.2358695  0.2625860  0.4829303

 Al 
  0.9990595  0.5100181  0.5025915

 Al 
  0.9944904  0.7446302  0.7619462

 Al 
  0.2219135  0.4890760  0.7239431

 Al 
  0.2670152  0.7682776  0.5147765

 Al 
  0.4861306  0.4904386  0.9603757

 Al 
  0.4951067  0.7263279  0.2472452

 Al 
  0.7500309  0.5237117  0.2739765

 Al 
  0.7550901  0.7510581  0.0080206

 Al 
  0.5263279  0.0027734  0.4892963

 Al 
  0.5095243  0.2310022  0.7381541

 Al 
  0.7588510  0.0045060  0.7498750

 Al 
  0.7500458  0.2549614  0.4944842

 Al 
  0.5006868  0.4833560  0.4994518

 Al 
  0.4903916  0.7708096  0.7380526

 Al 
  0.7596963  0.4787300  0.7618955

 Al 
  0.7615910  0.7327942  0.5243144

