32 
charge = 0 
 Al 
  0.0169348  0.0079662  0.0054292

 Al 
  0.9912975  0.2509504  0.2388434

 Al 
  0.2502153  0.0046953  0.2493849

 Al 
  0.2528315  0.2489481  0.9756027

 Al 
  0.5087372  0.9944359  0.0223133

 Al 
  0.4962947  0.2533179  0.2273687

 Al 
  0.7600762  0.9900908  0.2652344

 Al 
  0.7535184  0.2536001  0.9936167

 Al 
  0.9741003  0.4969680  0.0286446

 Al 
  0.0205930  0.7579538  0.2423519

 Al 
  0.2395302  0.4962069  0.2424670

 Al 
  0.2389919  0.7567992  0.9949978

 Al 
  0.9841357  0.0147913  0.5104921

 Al 
  0.0082818  0.2538191  0.7594847

 Al 
  0.2528204  0.9997686  0.7518922

 Al 
  0.2326023  0.2580887  0.4900141

 Al 
  0.9963282  0.4993750  0.5065096

 Al 
  0.0044367  0.7482637  0.7606777

 Al 
  0.2386689  0.4836889  0.7288847

 Al 
  0.2587434  0.7700584  0.5073808

 Al 
  0.4918098  0.4912678  0.9707898

 Al 
  0.4994097  0.7370378  0.2470682

 Al 
  0.7551730  0.5213059  0.2697144

 Al 
  0.7434545  0.7595824  0.0082991

 Al 
  0.5148594  0.9903829  0.4816123

 Al 
  0.5013093  0.2374635  0.7494023

 Al 
  0.7571803  0.9977934  0.7467799

 Al 
  0.7454841  0.2529343  0.4994753

 Al 
  0.5047423  0.4848968  0.5048624

 Al 
  0.4891330  0.7670994  0.7415289

 Al 
  0.7602668  0.4787845  0.7550356

 Al 
  0.7580392  0.7416663  0.5238404

