32 
charge = 0 
 Al 
  0.0170511  0.0079353  0.0052770

 Al 
  0.9915227  0.2506794  0.2387431

 Al 
  0.2499319  0.0038859  0.2490644

 Al 
  0.2531508  0.2493825  0.9758527

 Al 
  0.5085714  0.9953715  0.0220571

 Al 
  0.4965769  0.2533476  0.2276583

 Al 
  0.7603324  0.9901837  0.2659064

 Al 
  0.7535444  0.2541755  0.9931600

 Al 
  0.9741795  0.4971350  0.0287659

 Al 
  0.0200881  0.7574155  0.2424410

 Al 
  0.2393941  0.4963356  0.2424137

 Al 
  0.2396800  0.7564836  0.9952205

 Al 
  0.9842025  0.0145983  0.5097409

 Al 
  0.0081432  0.2540543  0.7593968

 Al 
  0.2527672  0.9993763  0.7512858

 Al 
  0.2325541  0.2576407  0.4904027

 Al 
  0.9961623  0.4988045  0.5065875

 Al 
  0.0049478  0.7484803  0.7605490

 Al 
  0.2398260  0.4836580  0.7293872

 Al 
  0.2580516  0.7700423  0.5067880

 Al 
  0.4921291  0.4914930  0.9714729

 Al 
  0.4995483  0.7376528  0.2470645

 Al 
  0.7554329  0.5210002  0.2693753

 Al 
  0.7428729  0.7599686  0.0082112

 Al 
  0.5141144  0.9898235  0.4812683

 Al 
  0.5008391  0.2377617  0.7499431

 Al 
  0.7569947  0.9974259  0.7467836

 Al 
  0.7452750  0.2527994  0.4997042

 Al 
  0.5048649  0.4851010  0.5051631

 Al 
  0.4892790  0.7667145  0.7419348

 Al 
  0.7602037  0.4789899  0.7546025

 Al 
  0.7577682  0.7422850  0.5237810

