32 
charge = 0 
 Al 
  0.0150945  0.0080367  0.0064081

 Al 
  0.9897505  0.2528315  0.2402542

 Al 
  0.2525048  0.0111381  0.2520432

 Al 
  0.2504133  0.2458925  0.9747847

 Al 
  0.5097594  0.9872222  0.0235025

 Al 
  0.4942763  0.2533798  0.2257896

 Al 
  0.7582644  0.9894832  0.2594773

 Al 
  0.7529120  0.2484060  0.9975880

 Al 
  0.9743330  0.4961784  0.0265915

 Al 
  0.0238466  0.7622333  0.2425028

 Al 
  0.2409584  0.4952007  0.2428902

 Al 
  0.2345911  0.7586976  0.9932602

 Al 
  0.9846914  0.0156911  0.5161316

 Al 
  0.0087013  0.2516212  0.7597124

 Al 
  0.2530135  0.0029739  0.7561309

 Al 
  0.2335392  0.2608163  0.4869004

 Al 
  0.9976041  0.5039206  0.5054502

 Al 
  0.0002686  0.7466004  0.7614623

 Al 
  0.2304317  0.4849871  0.7257425

 Al 
  0.2632877  0.7696599  0.5113608

 Al 
  0.4893755  0.4902443  0.9659324

 Al 
  0.4979617  0.7322806  0.2471350

 Al 
  0.7529305  0.5230496  0.2720385

 Al 
  0.7482934  0.7562497  0.0085788

 Al 
  0.5202490  0.9953096  0.4846827

 Al 
  0.5049750  0.2348522  0.7447676

 Al 
  0.7582855  0.0007388  0.7474085

 Al 
  0.7472415  0.2538661  0.4975063

 Al 
  0.5033810  0.4837681  0.5024776

 Al 
  0.4887567  0.7694062  0.7391243

 Al 
  0.7603906  0.4780357  0.7582323

 Al 
  0.7599191  0.7372271  0.5241349

