32 
charge = 0 
 Al 
  0.0163692  0.0080256  0.0058685

 Al 
  0.9906218  0.2517697  0.2392926

 Al 
  0.2511398  0.0073140  0.2504418

 Al 
  0.2518180  0.2476226  0.9750433

 Al 
  0.5092124  0.9914608  0.0229617

 Al 
  0.4954309  0.2532857  0.2265915

 Al 
  0.7592879  0.9898173  0.2629659

 Al 
  0.7533513  0.2516113  0.9951686

 Al 
  0.9740285  0.4965423  0.0280159

 Al 
  0.0220633  0.7596963  0.2422392

 Al 
  0.2400488  0.4957886  0.2426427

 Al 
  0.2369920  0.7576939  0.9942862

 Al 
  0.9841481  0.0152827  0.5128570

 Al 
  0.0085924  0.2529924  0.7596703

 Al 
  0.2529442  0.0010594  0.7537337

 Al 
  0.2328771  0.2593609  0.4887518

 Al 
  0.9968591  0.5012190  0.5061742

 Al 
  0.0027635  0.7475744  0.7610428

 Al 
  0.2351257  0.4840095  0.7274318

 Al 
  0.2607792  0.7699916  0.5091468

 Al 
  0.4908061  0.4907034  0.9687119

 Al 
  0.4988924  0.7350762  0.2470905

 Al 
  0.7542857  0.5221511  0.2707378

 Al 
  0.7453814  0.7582830  0.0084946

 Al 
  0.5171514  0.9922925  0.4827991

 Al 
  0.5028167  0.2364475  0.7475793

 Al 
  0.7577026  0.9989914  0.7469049

 Al 
  0.7461759  0.2533365  0.4987080

 Al 
  0.5042659  0.4843436  0.5038897

 Al 
  0.4888186  0.7681823  0.7403854

 Al 
  0.7603906  0.4783130  0.7563846

 Al 
  0.7588597  0.7397616  0.5239914

