32 
charge = 0 
 Al 
  0.0171848  0.0077521  0.0046371

 Al 
  0.9924150  0.2496176  0.2385662

 Al 
  0.2489270  0.0009839  0.2479395

 Al 
  0.2543042  0.2510433  0.9771199

 Al 
  0.5078857  0.9988194  0.0208641

 Al 
  0.4976610  0.2535592  0.2289565

 Al 
  0.7612878  0.9905562  0.2681575

 Al 
  0.7535196  0.2560480  0.9916366

 Al 
  0.9747500  0.4979147  0.0288303

 Al 
  0.0180090  0.7554886  0.2430102

 Al 
  0.2390377  0.4967898  0.2422417

 Al 
  0.2424818  0.7551569  0.9960361

 Al 
  0.9847854  0.0137110  0.5069650

 Al 
  0.0074576  0.2547906  0.7589426

 Al 
  0.2525036  0.9980162  0.7489406

 Al 
  0.2325825  0.2557658  0.4917826

 Al 
  0.9955757  0.4967625  0.5067571

 Al 
  0.0067546  0.7492649  0.7600218

 Al 
  0.2442602  0.4838869  0.7314366

 Al 
  0.2552819  0.7697800  0.5044404

 Al 
  0.4933357  0.4925561  0.9741547

 Al 
  0.4999542  0.7399089  0.2470620

 Al 
  0.7562707  0.5196785  0.2680548

 Al 
  0.7408594  0.7612853  0.0077669

 Al 
  0.5112470  0.9879895  0.4801495

 Al 
  0.4991374  0.2387493  0.7517586

 Al 
  0.7562225  0.9961301  0.7469841

 Al 
  0.7445275  0.2522511  0.5004802

 Al 
  0.5051817  0.4859933  0.5062299

 Al 
  0.4900203  0.7650908  0.7436253

 Al 
  0.7598547  0.4800344  0.7529677

 Al 
  0.7567249  0.7446253  0.5234815

