32 
charge = 0 
 Al 
  0.0167083  0.0073746  0.0037535

 Al 
  0.9935139  0.2483627  0.2387679

 Al 
  0.2479382  0.9980521  0.2468318

 Al 
  0.2554218  0.2529256  0.9792436

 Al 
  0.5069935  0.0025209  0.0190411

 Al 
  0.4989295  0.2540122  0.2309007

 Al 
  0.7622581  0.9910190  0.2700064

 Al 
  0.7532412  0.2575368  0.9903780

 Al 
  0.9759913  0.4991015  0.0280085

 Al 
  0.0152950  0.7535592  0.2440993

 Al 
  0.2390030  0.4972031  0.2421440

 Al 
  0.2460225  0.7534082  0.9968937

 Al 
  0.9861418  0.0123818  0.5040382

 Al 
  0.0063982  0.2553153  0.7581828

 Al 
  0.2520853  0.9967638  0.7462230

 Al 
  0.2330850  0.2532894  0.4931600

 Al 
  0.9950436  0.4946970  0.5067299

 Al 
  0.0085293  0.7500582  0.7593411

 Al 
  0.2493218  0.4848621  0.7340070

 Al 
  0.2518477  0.7689879  0.5016125

 Al 
  0.4947453  0.4942107  0.9774516

 Al 
  0.5001881  0.7422875  0.2470930

 Al 
  0.7568351  0.5178395  0.2665054

 Al 
  0.7390030  0.7624845  0.0070318

 Al 
  0.5078895  0.9865291  0.4793154

 Al 
  0.4974135  0.2395649  0.7532894

 Al 
  0.7552213  0.9949111  0.7475892

 Al 
  0.7437528  0.2515222  0.5011980

 Al 
  0.5052349  0.4872754  0.5072620

 Al 
  0.4912046  0.7629041  0.7458121

 Al 
  0.7592223  0.4818227  0.7511423

 Al 
  0.7555220  0.7472155  0.5229494

