32 
charge = 0 
 Al 
  0.0168544  0.0074650  0.0039392

 Al 
  0.9932949  0.2486065  0.2386961

 Al 
  0.2481152  0.9985830  0.2470323

 Al 
  0.2552287  0.2525667  0.9787746

 Al 
  0.5071754  0.0018279  0.0194334

 Al 
  0.4986808  0.2539057  0.2304824

 Al 
  0.7620873  0.9909262  0.2697181

 Al 
  0.7533154  0.2573053  0.9905772

 Al 
  0.9756980  0.4988466  0.0282498

 Al 
  0.0158495  0.7539070  0.2438543

 Al 
  0.2389746  0.4971338  0.2421514

 Al 
  0.2453121  0.7537647  0.9967341

 Al 
  0.9858200  0.0126665  0.5045765

 Al 
  0.0066234  0.2552411  0.7583498

 Al 
  0.2521756  0.9969779  0.7467477

 Al 
  0.2329439  0.2537944  0.4929100

 Al 
  0.9951314  0.4950720  0.5067521

 Al 
  0.0082125  0.7499146  0.7594785

 Al 
  0.2483503  0.4846109  0.7334946

 Al 
  0.2525321  0.7691896  0.5021682

 Al 
  0.4944669  0.4938518  0.9767895

 Al 
  0.5001609  0.7418457  0.2470843

 Al 
  0.7567645  0.5182243  0.2668073

 Al 
  0.7393211  0.7622791  0.0071927

 Al 
  0.5085454  0.9867531  0.4794354

 Al 
  0.4977254  0.2394349  0.7530444

 Al 
  0.7554230  0.9951203  0.7474407

 Al 
  0.7438976  0.2516744  0.5010730

 Al 
  0.5052522  0.4870044  0.5070813

 Al 
  0.4909497  0.7633558  0.7453715

 Al 
  0.7593659  0.4814229  0.7514900

 Al 
  0.7557534  0.7467266  0.5230719

