32 
charge = 0 
 Al 
  0.0094773  0.0034639  0.9984592

 Al 
  0.9982625  0.2443703  0.2426377

 Al 
  0.2458591  0.9911787  0.2435969

 Al 
  0.2559267  0.2590317  0.9931526

 Al 
  0.5024986  0.0135216  0.0080343

 Al 
  0.5039775  0.2575726  0.2434521

 Al 
  0.7623979  0.9931860  0.2683110

 Al 
  0.7505334  0.2576890  0.9907740

 Al 
  0.9865861  0.5057856  0.0153767

 Al 
  0.0017573  0.7491609  0.2509900

 Al 
  0.2429632  0.4974655  0.2439211

 Al 
  0.2605762  0.7457564  0.9992971

 Al 
  0.9970942  0.0044825  0.4971326

 Al 
  0.0012215  0.2546532  0.7536310

 Al 
  0.2498911  0.9950708  0.7371492

 Al 
  0.2405091  0.2422170  0.4967365

 Al 
  0.9955856  0.4897790  0.5049007

 Al 
  0.0121566  0.7514083  0.7563289

 Al 
  0.2654275  0.4947713  0.7446810

 Al 
  0.2378187  0.7594005  0.4911490

 Al 
  0.5015890  0.5037560  0.9932132

 Al 
  0.4996411  0.7490458  0.2476338

 Al 
  0.7541260  0.5075405  0.2603621

 Al 
  0.7373496  0.7640525  0.0027103

 Al 
  0.4946092  0.9877877  0.4815467

 Al 
  0.4938493  0.2400624  0.7531088

 Al 
  0.7509467  0.9940052  0.7525085

 Al 
  0.7412900  0.2474222  0.5027709

 Al 
  0.5024826  0.4947614  0.5083102

 Al 
  0.4977340  0.7523378  0.7546730

 Al 
  0.7545765  0.4945411  0.7455522

 Al 
  0.7512858  0.7547263  0.5178976

