32 
charge = 0 
 Al 
  0.0089575  0.0031607  0.9981201

 Al 
  0.9985100  0.2442453  0.2429137

 Al 
  0.2458109  0.9909831  0.2434434

 Al 
  0.2557856  0.2592842  0.9940015

 Al 
  0.5022276  0.0139337  0.0073610

 Al 
  0.5042275  0.2577880  0.2442639

 Al 
  0.7622086  0.9933134  0.2678964

 Al 
  0.7503750  0.2575590  0.9909757

 Al 
  0.9873125  0.5061606  0.0144127

 Al 
  0.0009702  0.7490298  0.2513799

 Al 
  0.2433035  0.4974432  0.2441315

 Al 
  0.2612532  0.7454000  0.9993874

 Al 
  0.9977835  0.0039911  0.4969581

 Al 
  0.0009678  0.2545505  0.7533736

 Al 
  0.2497859  0.9950658  0.7368039

 Al 
  0.2410957  0.2416823  0.4968702

 Al 
  0.9957329  0.4896367  0.5047461

 Al 
  0.0122209  0.7513997  0.7561692

 Al 
  0.2660215  0.4954334  0.7452255

 Al 
  0.2371529  0.7586419  0.4906886

 Al 
  0.5020271  0.5042684  0.9941377

 Al 
  0.4995966  0.7493144  0.2476944

 Al 
  0.7538241  0.5069081  0.2600317

 Al 
  0.7374870  0.7640253  0.0024714

 Al 
  0.4939471  0.9880761  0.4818734

 Al 
  0.4937862  0.2400488  0.7528947

 Al 
  0.7507302  0.9941129  0.7528068

 Al 
  0.7411886  0.2471734  0.5028278

 Al 
  0.5022474  0.4952280  0.5082248

 Al 
  0.4981053  0.7517908  0.7550678

 Al 
  0.7542708  0.4953604  0.7453579

 Al 
  0.7510891  0.7549923  0.5174892

