32 
charge = 0 
 Al 
  0.0109896  0.0043278  0.9994505

 Al 
  0.9975113  0.2448047  0.2418321

 Al 
  0.2460324  0.9918469  0.2440585

 Al 
  0.2562658  0.2582310  0.9906242

 Al 
  0.5032969  0.0121813  0.0100292

 Al 
  0.5032065  0.2569192  0.2410722

 Al 
  0.7628471  0.9928110  0.2694013

 Al 
  0.7510160  0.2580367  0.9902505

 Al 
  0.9844711  0.5046508  0.0181451

 Al 
  0.0040939  0.7495928  0.2498057

 Al 
  0.2419979  0.4975236  0.2433630

 Al 
  0.2584526  0.7468813  0.9990112

 Al 
  0.9950386  0.0059292  0.4977489

 Al 
  0.0020110  0.2549403  0.7544107

 Al 
  0.2502252  0.9951092  0.7382840

 Al 
  0.2388409  0.2438877  0.4963096

 Al 
  0.9952069  0.4902653  0.5053351

 Al 
  0.0118955  0.7513898  0.7568103

 Al 
  0.2634746  0.4928147  0.7430313

 Al 
  0.2398978  0.7615514  0.4926006

 Al 
  0.5003242  0.5021707  0.9904745

 Al 
  0.4997834  0.7482006  0.2474828

 Al 
  0.7549701  0.5094042  0.2613472

 Al 
  0.7370588  0.7640810  0.0034379

 Al 
  0.4966388  0.9870118  0.4806717

 Al 
  0.4941005  0.2401168  0.7536644

 Al 
  0.7516064  0.9937602  0.7516113

 Al 
  0.7416155  0.2481610  0.5025927

 Al 
  0.5031508  0.4933927  0.5084835

 Al 
  0.4966227  0.7540221  0.7534181

 Al 
  0.7554713  0.4921266  0.7462044

 Al 
  0.7518885  0.7538562  0.5190387

