32 
charge = 0 
 Al 
  0.0119388  0.0048550  0.0000829

 Al 
  0.9970088  0.2451401  0.2413247

 Al 
  0.2461722  0.9923593  0.2443679

 Al 
  0.2564143  0.2576704  0.9889832

 Al 
  0.5038092  0.0112148  0.0113175

 Al 
  0.5026855  0.2564910  0.2395574

 Al 
  0.7630464  0.9925709  0.2699829

 Al 
  0.7513378  0.2582236  0.9899795

 Al 
  0.9831382  0.5039008  0.0198567

 Al 
  0.0056123  0.7499171  0.2490211

 Al 
  0.2414113  0.4975509  0.2430536

 Al 
  0.2569848  0.7476635  0.9988058

 Al 
  0.9937070  0.0068561  0.4982377

 Al 
  0.0025519  0.2551074  0.7549267

 Al 
  0.2504579  0.9951611  0.7391082

 Al 
  0.2378224  0.2450349  0.4960039

 Al 
  0.9950114  0.4906366  0.5055938

 Al 
  0.0116665  0.7513390  0.7571296

 Al 
  0.2620489  0.4915648  0.7419274

 Al 
  0.2413247  0.7628595  0.4936117

 Al 
  0.4995273  0.5011014  0.9887048

 Al 
  0.4998787  0.7476090  0.2474024

 Al 
  0.7554663  0.5106010  0.2619932

 Al 
  0.7369685  0.7640538  0.0039231

 Al 
  0.4980038  0.9865861  0.4801841

 Al 
  0.4943208  0.2401515  0.7539491

 Al 
  0.7520482  0.9936662  0.7510247

 Al 
  0.7418457  0.2486399  0.5024677

 Al 
  0.5035568  0.4925152  0.5085293

 Al 
  0.4958950  0.7551594  0.7525407

 Al 
  0.7560393  0.4905809  0.7466870

 Al 
  0.7522994  0.7532201  0.5197218

