32 
charge = 0 
 Al 
  0.0037399  0.9999876  0.9948295

 Al 
  0.0007277  0.2435993  0.2456698

 Al 
  0.2455720  0.9897703  0.2419781

 Al 
  0.2538736  0.2613150  0.0019690

 Al 
  0.4995285  0.0169410  0.0009777

 Al 
  0.5063178  0.2596208  0.2522536

 Al 
  0.7594179  0.9947045  0.2628199

 Al 
  0.7490632  0.2561111  0.9935238

 Al 
  0.9946562  0.5095738  0.0044985

 Al 
  0.9934038  0.7479605  0.2547733

 Al 
  0.2468776  0.4972662  0.2467638

 Al 
  0.2666452  0.7426204  0.0001547

 Al 
  0.0040901  0.9992253  0.4959383

 Al 
  0.9988416  0.2533996  0.7510594

 Al 
  0.2489679  0.9950968  0.7345045

 Al 
  0.2472774  0.2374202  0.4978714

 Al 
  0.9975929  0.4887233  0.5029850

 Al 
  0.0122383  0.7509034  0.7546421

 Al 
  0.2701092  0.5017227  0.7502240

 Al 
  0.2317992  0.7504641  0.4869586

 Al 
  0.5065232  0.5084711  0.0031446

 Al 
  0.4993218  0.7516051  0.2486498

 Al 
  0.7506200  0.5007673  0.2568945

 Al 
  0.7397604  0.7633607  0.0004195

 Al 
  0.4881689  0.9912888  0.4857284

 Al 
  0.4936525  0.2402517  0.7502500

 Al 
  0.7487872  0.9957168  0.7554589

 Al 
  0.7404460  0.2448332  0.5033290

 Al 
  0.4998131  0.4998515  0.5066667

 Al 
  0.5016497  0.7472192  0.7580578

 Al 
  0.7512524  0.5032659  0.7441278

 Al 
  0.7492637  0.7569427  0.5128793

