32 
charge = 0 
 Al 
  0.0063190  0.0015804  0.9964284

 Al 
  0.9996881  0.2437887  0.2443097

 Al 
  0.2456376  0.9902109  0.2426947

 Al 
  0.2549168  0.2604215  0.9981573

 Al 
  0.5008626  0.0157022  0.0040444

 Al 
  0.5053846  0.2588015  0.2483392

 Al 
  0.7610007  0.9939805  0.2655265

 Al 
  0.7496461  0.2568536  0.9921539

 Al 
  0.9910116  0.5079612  0.0094451

 Al 
  0.9970831  0.7484543  0.2532251

 Al 
  0.2450782  0.4973355  0.2453418

 Al 
  0.2642951  0.7438134  0.9997958

 Al 
  0.0011249  0.0015432  0.4962960

 Al 
  0.9997995  0.2539961  0.7521435

 Al 
  0.2493156  0.9950733  0.7353745

 Al 
  0.2441599  0.2392753  0.4974543

 Al 
  0.9965955  0.4890649  0.5039045

 Al 
  0.0123719  0.7512413  0.7553883

 Al 
  0.2684966  0.4987055  0.7478405

 Al 
  0.2341357  0.7546359  0.4886082

 Al 
  0.5042721  0.5066160  0.9987451

 Al 
  0.4994109  0.7505520  0.2480867

 Al 
  0.7522276  0.5037572  0.2584080

 Al 
  0.7384362  0.7637728  0.0013514

 Al 
  0.4908297  0.9896453  0.4836988

 Al 
  0.4936129  0.2400537  0.7516559

 Al 
  0.7496993  0.9948121  0.7542337

 Al 
  0.7407517  0.2459556  0.5030939

 Al 
  0.5010297  0.4975682  0.5075974

 Al 
  0.4999332  0.7492686  0.7568029

 Al 
  0.7527338  0.4994307  0.7445758

 Al 
  0.7501411  0.7561309  0.5152789

