32 
charge = 0 
 Al 
  0.0068462  0.0019009  0.9967638

 Al 
  0.9994629  0.2438580  0.2440312

 Al 
  0.2456623  0.9903371  0.2428419

 Al 
  0.2551087  0.2602124  0.9973467

 Al 
  0.5011348  0.0153903  0.0046941

 Al 
  0.5051693  0.2586110  0.2475311

 Al 
  0.7612754  0.9938431  0.2660326

 Al 
  0.7497822  0.2569997  0.9918989

 Al 
  0.9902703  0.5076147  0.0104463

 Al 
  0.9978479  0.7485607  0.2528749

 Al 
  0.2447168  0.4973553  0.2450807

 Al 
  0.2637394  0.7441005  0.9997191

 Al 
  0.0004802  0.0020271  0.4964012

 Al 
  0.0000173  0.2541112  0.7523798

 Al 
  0.2494010  0.9950683  0.7356170

 Al 
  0.2435362  0.2397171  0.4973491

 Al 
  0.9964086  0.4891602  0.5040790

 Al 
  0.0123645  0.7512883  0.7555418

 Al 
  0.2680697  0.4980657  0.7473343

 Al 
  0.2346901  0.7554564  0.4889919

 Al 
  0.5038191  0.5061816  0.9978343

 Al 
  0.4994419  0.7503193  0.2479951

 Al 
  0.7525531  0.5043797  0.2587273

 Al 
  0.7382135  0.7638372  0.0015630

 Al 
  0.4914212  0.9893198  0.4833127

 Al 
  0.4936290  0.2400389  0.7519219

 Al 
  0.7498960  0.9946525  0.7539602

 Al 
  0.7408284  0.2461933  0.5030432

 Al 
  0.5012759  0.4971016  0.5077484

 Al 
  0.4995743  0.7497401  0.7564923

 Al 
  0.7530395  0.4986288  0.7447057

 Al 
  0.7503255  0.7559292  0.5157406

