32 
charge = 0 
 Al 
  0.0013069  0.9984530  0.9933865

 Al 
  0.0016138  0.2436315  0.2469766

 Al 
  0.2456079  0.9896280  0.2412752

 Al 
  0.2527486  0.2619388  0.0053537

 Al 
  0.4982266  0.0176650  0.9982488

 Al 
  0.5069774  0.2601567  0.2559131

 Al 
  0.7575157  0.9955398  0.2599017

 Al 
  0.7486548  0.2553710  0.9950139

 Al 
  0.9981746  0.5109784  0.9997376

 Al 
  0.9899720  0.7474766  0.2559477

 Al 
  0.2486424  0.4972724  0.2483503

 Al 
  0.2682850  0.7418469  0.0004864

 Al 
  0.0065504  0.9971115  0.4957972

 Al 
  0.9980942  0.2527585  0.7501312

 Al 
  0.2487501  0.9951042  0.7342297

 Al 
  0.2503255  0.2361517  0.4981053

 Al 
  0.9986449  0.4885822  0.5020098

 Al 
  0.0118224  0.7504010  0.7538934

 Al 
  0.2709222  0.5043921  0.7523897

 Al 
  0.2302101  0.7462390  0.4857346

 Al 
  0.5087199  0.5098003  0.0072546

 Al 
  0.4993515  0.7524912  0.2493998

 Al 
  0.7491164  0.4980310  0.2555344

 Al 
  0.7413853  0.7628125  0.9996980

 Al 
  0.4860304  0.9928914  0.4878756

 Al 
  0.4938728  0.2406911  0.7487624

 Al 
  0.7479964  0.9967675  0.7564155

 Al 
  0.7402839  0.2438147  0.5035493

 Al 
  0.4986511  0.5020667  0.5054614

 Al 
  0.5032387  0.7457007  0.7588288

 Al 
  0.7498701  0.5067744  0.7439941

 Al 
  0.7484394  0.7574600  0.5103448

