32 
charge = 0 
 Al 
  0.0003737  0.9978565  0.9928543

 Al 
  0.0019294  0.2436921  0.2474952

 Al 
  0.2456487  0.9896453  0.2409893

 Al 
  0.2522858  0.2621108  0.0066012

 Al 
  0.4977006  0.0178221  0.9972439

 Al 
  0.5071605  0.2602767  0.2573152

 Al 
  0.7566630  0.9959222  0.2586728

 Al 
  0.7485409  0.2550752  0.9956388

 Al 
  0.9995594  0.5114908  0.9978751

 Al 
  0.9886478  0.7472699  0.2563091

 Al 
  0.2493416  0.4972984  0.2490335

 Al 
  0.2687590  0.7416564  0.0006138

 Al 
  0.0073932  0.9963207  0.4957849

 Al 
  0.9978454  0.2524838  0.7497958

 Al 
  0.2486993  0.9950943  0.7342929

 Al 
  0.2515197  0.2358027  0.4981461

 Al 
  0.9990694  0.4885736  0.5016026

 Al 
  0.0115762  0.7501572  0.7535778

 Al 
  0.2710472  0.5053698  0.7532127

 Al 
  0.2297782  0.7445275  0.4853559

 Al 
  0.5095874  0.5101975  0.0088325

 Al 
  0.4994010  0.7528117  0.2497587

 Al 
  0.7485582  0.4970051  0.2550332

 Al 
  0.7421155  0.7625489  0.9994654

 Al 
  0.4853151  0.9935115  0.4887716

 Al 
  0.4940090  0.2409410  0.7481511

 Al 
  0.7477056  0.9972254  0.7567138

 Al 
  0.7402616  0.2434285  0.5036384

 Al 
  0.4982018  0.5029528  0.5049032

 Al 
  0.5038451  0.7452416  0.7590132

 Al 
  0.7493429  0.5080986  0.7440189

 Al 
  0.7481164  0.7575937  0.5092879

