32 
charge = 0 
 Al 
  0.0032412  0.9996745  0.9945275

 Al 
  0.0009170  0.2435907  0.2459346

 Al 
  0.2455708  0.9897196  0.2418383

 Al 
  0.2536533  0.2614611  0.0026793

 Al 
  0.4992674  0.0171254  0.0004047

 Al 
  0.5064725  0.2597532  0.2530048

 Al 
  0.7590627  0.9948604  0.2622531

 Al 
  0.7489666  0.2559626  0.9938134

 Al 
  0.9953703  0.5098708  0.0035320

 Al 
  0.9926996  0.7478652  0.2550381

 Al 
  0.2472328  0.4972613  0.2470682

 Al 
  0.2670276  0.7424323  0.0002228

 Al 
  0.0046235  0.9987847  0.4958962

 Al 
  0.9986758  0.2532758  0.7508613

 Al 
  0.2489134  0.9951017  0.7344005

 Al 
  0.2478937  0.2371194  0.4979333

 Al 
  0.9978009  0.4886800  0.5027944

 Al 
  0.0121776  0.7508156  0.7544936

 Al 
  0.2703332  0.5022845  0.7506732

 Al 
  0.2314217  0.7496225  0.4866801

 Al 
  0.5069675  0.5087780  0.0039887

 Al 
  0.4993181  0.7517945  0.2487847

 Al 
  0.7503082  0.5001992  0.2566098

 Al 
  0.7400624  0.7632630  0.0002587

 Al 
  0.4876999  0.9916143  0.4861492

 Al 
  0.4936835  0.2403198  0.7499579

 Al 
  0.7486201  0.9959160  0.7556730

 Al 
  0.7404015  0.2446228  0.5033736

 Al 
  0.4995755  0.5002983  0.5064465

 Al 
  0.5019764  0.7468727  0.7582484

 Al 
  0.7509678  0.5039936  0.7440770

 Al 
  0.7490953  0.7570690  0.5123831

