32 
charge = 0 
 Al 
  0.9950609  0.9942948  0.9901267

 Al 
  0.0034157  0.2444372  0.2509344

 Al 
  0.2461636  0.9905562  0.2390575

 Al 
  0.2493775  0.2621046  0.0133335

 Al 
  0.4940721  0.0172677  0.9917789

 Al 
  0.5071828  0.2595787  0.2655240

 Al 
  0.7500990  0.9992414  0.2501139

 Al 
  0.7484592  0.2532003  0.9999369

 Al 
  0.0081605  0.5141651  0.9864994

 Al 
  0.9806841  0.7456190  0.2571605

 Al 
  0.2537065  0.4977117  0.2539169

 Al 
  0.2697218  0.7420734  0.0014220

 Al 
  0.0109698  0.9919868  0.4959643

 Al 
  0.9968158  0.2504468  0.7479296

 Al 
  0.2488268  0.9947329  0.7369969

 Al 
  0.2585553  0.2356393  0.4978182

 Al 
  0.0015754  0.4889114  0.4988726

 Al 
  0.0089402  0.7481511  0.7509839

 Al 
  0.2696451  0.5104908  0.7580231

 Al 
  0.2295567  0.7335206  0.4843164

 Al 
  0.5148829  0.5111653  0.0180610

 Al 
  0.5002463  0.7546013  0.2528018

 Al 
  0.7459321  0.4914150  0.2525593

 Al 
  0.7476585  0.7601629  0.9986350

 Al 
  0.4826023  0.9968764  0.4950139

 Al 
  0.4954680  0.2436377  0.7442441

 Al 
  0.7460262  0.0005767  0.7573338

 Al 
  0.7408656  0.2410982  0.5043352

 Al 
  0.4956166  0.5088350  0.5005718

 Al 
  0.5072818  0.7443097  0.7587817

 Al 
  0.7464234  0.5155351  0.7450040

 Al 
  0.7460101  0.7576543  0.5019529

