32 
charge = 0 
 Al 
  0.9946339  0.9939867  0.9899349

 Al 
  0.0035048  0.2445188  0.2512735

 Al 
  0.2462242  0.9906911  0.2388780

 Al 
  0.2491250  0.2620167  0.0138582

 Al 
  0.4937107  0.0171006  0.9913433

 Al 
  0.5070900  0.2593869  0.2662195

 Al 
  0.7494097  0.9996250  0.2492748

 Al 
  0.7485013  0.2530333  0.0003490

 Al 
  0.0089315  0.5143594  0.9854945

 Al 
  0.9799923  0.7454371  0.2571234

 Al 
  0.2540988  0.4977612  0.2543909

 Al 
  0.2696624  0.7422454  0.0014999

 Al 
  0.0111591  0.9916427  0.4959866

 Al 
  0.9967613  0.2502376  0.7477674

 Al 
  0.2488676  0.9946686  0.7374301

 Al 
  0.2591320  0.2357928  0.4977501

 Al 
  0.0017722  0.4889585  0.4986176

 Al 
  0.0086147  0.7479456  0.7506732

 Al 
  0.2693666  0.5108720  0.7584315

 Al 
  0.2297300  0.7325281  0.4843300

 Al 
  0.5153371  0.5111405  0.0188332

 Al 
  0.5003676  0.7547609  0.2531397

 Al 
  0.7457886  0.4909806  0.2524058

 Al 
  0.7482241  0.7598757  0.9986065

 Al 
  0.4825046  0.9971140  0.4956314

 Al 
  0.4956487  0.2439879  0.7439013

 Al 
  0.7458764  0.0009146  0.7572744

 Al 
  0.7409955  0.2408915  0.5044107

 Al 
  0.4954099  0.5094005  0.5001287

 Al 
  0.5075541  0.7443889  0.7586605

 Al 
  0.7461982  0.5161292  0.7451500

 Al 
  0.7458059  0.7576073  0.5012301

