32 
charge = 0 
 Al 
  0.9985607  0.9966809  0.9918606

 Al 
  0.0025024  0.2438790  0.2485508

 Al 
  0.2457712  0.9898000  0.2403916

 Al 
  0.2513415  0.2623125  0.0089612

 Al 
  0.4966054  0.0179224  0.9953418

 Al 
  0.5073821  0.2603349  0.2600589

 Al 
  0.7547807  0.9968059  0.2560826

 Al 
  0.7483986  0.2544750  0.9969544

 Al 
  0.0023328  0.5124499  0.9941686

 Al 
  0.9860329  0.7468120  0.2568487

 Al 
  0.2507450  0.4973912  0.2504987

 Al 
  0.2694273  0.7414831  0.0008700

 Al 
  0.0088585  0.9948146  0.4958071

 Al 
  0.9974222  0.2518910  0.7491634

 Al 
  0.2486622  0.9950411  0.7347260

 Al 
  0.2538822  0.2353695  0.4981449

 Al 
  0.9999183  0.4886219  0.5007549

 Al 
  0.0109314  0.7495916  0.7528823

 Al 
  0.2709816  0.5072001  0.7548166

 Al 
  0.2292510  0.7410277  0.4847743

 Al 
  0.5113237  0.5107804  0.0119227

 Al 
  0.4995693  0.7534120  0.2505854

 Al 
  0.7475311  0.4950498  0.2541025

 Al 
  0.7437243  0.7619313  0.9990842

 Al 
  0.4841109  0.9947107  0.4906552

 Al 
  0.4943641  0.2415858  0.7468974

 Al 
  0.7471474  0.9982142  0.7571593

 Al 
  0.7403049  0.2426687  0.5038327

 Al 
  0.4973244  0.5047708  0.5036558

 Al 
  0.5050233  0.7445733  0.7591864

 Al 
  0.7483281  0.5106505  0.7441896

 Al 
  0.7474630  0.7577484  0.5070677

