32 
charge = 0 
 Al 
  0.9910660  0.9911477  0.9885723

 Al 
  0.0039181  0.2452762  0.2548314

 Al 
  0.2468578  0.9922170  0.2373360

 Al 
  0.2469321  0.2605898  0.0182318

 Al 
  0.4900203  0.0147530  0.9875241

 Al 
  0.5054997  0.2564947  0.2724580

 Al 
  0.7421526  0.0039045  0.2408940

 Al 
  0.7492414  0.2515420  0.0043748

 Al 
  0.0161502  0.5157109  0.9762153

 Al 
  0.9737550  0.7434644  0.2559279

 Al 
  0.2578016  0.4982105  0.2588139

 Al 
  0.2681761  0.7448876  0.0023848

 Al 
  0.0120539  0.9886144  0.4961079

 Al 
  0.9965249  0.2480979  0.7461759

 Al 
  0.2493651  0.9937825  0.7428766

 Al 
  0.2639226  0.2385451  0.4970001

 Al 
  0.0032486  0.4893396  0.4962254

 Al 
  0.0048574  0.7460373  0.7468145

 Al 
  0.2659472  0.5138298  0.7620526

 Al 
  0.2327125  0.7235582  0.4853163

 Al 
  0.5192218  0.5102012  0.0255359

 Al 
  0.5018353  0.7564316  0.2567373

 Al 
  0.7454148  0.4873793  0.2517016

 Al 
  0.7539020  0.7564366  0.9986040

 Al 
  0.4826927  0.9985867  0.5019294

 Al 
  0.4977167  0.2483776  0.7409324

 Al 
  0.7443926  0.0042894  0.7557584

 Al 
  0.7430016  0.2389312  0.5051792

 Al 
  0.4938048  0.5150153  0.4958121

 Al 
  0.5097025  0.7464135  0.7569006

 Al 
  0.7443988  0.5210237  0.7468863

 Al 
  0.7437119  0.7569068  0.4938864

