32 
charge = 0 
 Al 
  0.9907232  0.9908396  0.9884721

 Al 
  0.0039132  0.2453542  0.2552733

 Al 
  0.2469333  0.9924113  0.2371949

 Al 
  0.2467130  0.2603671  0.0186563

 Al 
  0.4895822  0.0144102  0.9871269

 Al 
  0.5052460  0.2560443  0.2731115

 Al 
  0.7412554  0.0044540  0.2399089

 Al 
  0.7493627  0.2513898  0.0048314

 Al 
  0.0169398  0.5157950  0.9752166

 Al 
  0.9731065  0.7432157  0.2557015

 Al 
  0.2582075  0.4982513  0.2592706

 Al 
  0.2679150  0.7452935  0.0025085

 Al 
  0.0120600  0.9882951  0.4961054

 Al 
  0.9965311  0.2478429  0.7459866

 Al 
  0.2494233  0.9936538  0.7436315

 Al 
  0.2643669  0.2389981  0.4969222

 Al 
  0.0033587  0.4893656  0.4959668

 Al 
  0.0043550  0.7458455  0.7462564

 Al 
  0.2655054  0.5140835  0.7624202

 Al 
  0.2331865  0.7226350  0.4855304

 Al 
  0.5195943  0.5100230  0.0262066

 Al 
  0.5020308  0.7566482  0.2571717

 Al 
  0.7455002  0.4870328  0.2517214

 Al 
  0.7545604  0.7559613  0.9986275

 Al 
  0.4828362  0.9986535  0.5026880

 Al 
  0.4979865  0.2490087  0.7406453

 Al 
  0.7442156  0.0046805  0.7554787

 Al 
  0.7433258  0.2387134  0.5052658

 Al 
  0.4936835  0.5156638  0.4953356

 Al 
  0.5098869  0.7467836  0.7566408

 Al 
  0.7442354  0.5214767  0.7471128

 Al 
  0.7434607  0.7568066  0.4930127

