32 
charge = 0 
 Al 
  0.9921749  0.9920932  0.9889424

 Al 
  0.0038686  0.2450287  0.2535506

 Al 
  0.2466351  0.9916551  0.2378112

 Al 
  0.2476301  0.2611888  0.0168680

 Al 
  0.4913197  0.0156960  0.9887617

 Al 
  0.5061754  0.2576952  0.2704198

 Al 
  0.7447602  0.0023266  0.2438171

 Al 
  0.7489233  0.2520234  0.0029961

 Al 
  0.0137295  0.5153631  0.9793005

 Al 
  0.9757908  0.7441835  0.2564997

 Al 
  0.2565578  0.4980719  0.2573623

 Al 
  0.2688543  0.7437949  0.0020457

 Al 
  0.0119214  0.9896008  0.4960918

 Al 
  0.9965472  0.2488528  0.7467341

 Al 
  0.2491844  0.9941364  0.7407678

 Al 
  0.2624536  0.2373533  0.4972576

 Al 
  0.0028390  0.4892357  0.4970249

 Al 
  0.0062720  0.7466561  0.7483318

 Al 
  0.2672331  0.5129622  0.7608856

 Al 
  0.2314440  0.7264764  0.4848027

 Al 
  0.5180065  0.5106542  0.0234011

 Al 
  0.5012796  0.7558215  0.2554527

 Al 
  0.7453282  0.4884981  0.2517747

 Al 
  0.7519294  0.7577558  0.9985582

 Al 
  0.4824093  0.9982563  0.4997030

 Al 
  0.4969469  0.2466549  0.7418667

 Al 
  0.7449124  0.0031174  0.7564675

 Al 
  0.7421526  0.2395921  0.5049131

 Al 
  0.4942589  0.5130699  0.4972761

 Al 
  0.5090701  0.7454730  0.7576122

 Al 
  0.7449384  0.5195263  0.7462353

 Al 
  0.7444532  0.7571865  0.4964692

