32 
charge = 0 
 Al 
  0.9929682  0.9927293  0.9892406

 Al 
  0.0037820  0.2448579  0.2527462

 Al 
  0.2464915  0.9913061  0.2381590

 Al 
  0.2481214  0.2615217  0.0158965

 Al 
  0.4921551  0.0162405  0.9896131

 Al 
  0.5065479  0.2583647  0.2690226

 Al 
  0.7464049  0.0013514  0.2457106

 Al 
  0.7487501  0.2523576  0.0020878

 Al 
  0.0121071  0.5150661  0.9813833

 Al 
  0.9771892  0.7446315  0.2567843

 Al 
  0.2557250  0.4979692  0.2563623

 Al 
  0.2692082  0.7431810  0.0018464

 Al 
  0.0117408  0.9902752  0.4960646

 Al 
  0.9965955  0.2493367  0.7470917

 Al 
  0.2490694  0.9943419  0.7395166

 Al 
  0.2613868  0.2367098  0.4974321

 Al 
  0.0025123  0.4891491  0.4975632

 Al 
  0.0071271  0.7470880  0.7492104

 Al 
  0.2680239  0.5123100  0.7600738

 Al 
  0.2307448  0.7284924  0.4845676

 Al 
  0.5171378  0.5108806  0.0219036

 Al 
  0.5009418  0.7554453  0.2546334

 Al 
  0.7453963  0.4892963  0.2519219

 Al 
  0.7506435  0.7585404  0.9985521

 Al 
  0.4823449  0.9979370  0.4982798

 Al 
  0.4964754  0.2456524  0.7425313

 Al 
  0.7452465  0.0023538  0.7568264

 Al 
  0.7416898  0.2400327  0.5047386

 Al 
  0.4946166  0.5118014  0.4982538

 Al 
  0.5085936  0.7449928  0.7580219

 Al 
  0.7453356  0.5184372  0.7458368

 Al 
  0.7449272  0.7573511  0.4981300

