32 
charge = 0 
 Al 
  0.9925672  0.9924113  0.9890872

 Al 
  0.0038303  0.2449433  0.2531422

 Al 
  0.2465633  0.9914781  0.2379833

 Al 
  0.2478739  0.2613621  0.0163866

 Al 
  0.4917417  0.0159769  0.9891849

 Al 
  0.5063710  0.2580429  0.2697230

 Al 
  0.7455930  0.0018304  0.2447713

 Al 
  0.7488330  0.2521892  0.0025395

 Al 
  0.0129177  0.5152208  0.9803426

 Al 
  0.9764888  0.7444112  0.2566519

 Al 
  0.2561408  0.4980211  0.2568635

 Al 
  0.2690411  0.7434756  0.0019430

 Al 
  0.0118410  0.9899374  0.4960794

 Al 
  0.9965682  0.2490978  0.7469135

 Al 
  0.2491263  0.9942416  0.7401255

 Al 
  0.2619276  0.2370155  0.4973454

 Al 
  0.0026806  0.4891936  0.4972947

 Al 
  0.0067088  0.7468714  0.7487835

 Al 
  0.2676365  0.5126429  0.7604822

 Al 
  0.2310789  0.7274801  0.4846753

 Al 
  0.5175759  0.5107755  0.0226573

 Al 
  0.5011064  0.7556297  0.2550381

 Al 
  0.7453505  0.4888929  0.2518390

 Al 
  0.7512821  0.7581580  0.9985533

 Al 
  0.4823647  0.9981053  0.4989840

 Al 
  0.4967068  0.2461388  0.7421959

 Al 
  0.7450807  0.0027325  0.7566581

 Al 
  0.7419113  0.2398136  0.5048253

 Al 
  0.4944334  0.5124313  0.4977674

 Al 
  0.5088362  0.7452181  0.7578239

 Al 
  0.7451339  0.5189892  0.7460324

 Al 
  0.7446921  0.7572719  0.4973071

