32 
charge = 0 
 Al 
  0.9888248  0.9889040  0.9881058

 Al 
  0.0035469  0.2457836  0.2584427

 Al 
  0.2474395  0.9937751  0.2366331

 Al 
  0.2454779  0.2585577  0.0210485

 Al 
  0.4866467  0.0117729  0.9846790

 Al 
  0.5032090  0.2523365  0.2770655

 Al 
  0.7348621  0.0083981  0.2332310

 Al 
  0.7503688  0.2505297  0.0077620

 Al 
  0.0218764  0.5158557  0.9690845

 Al 
  0.9693023  0.7414200  0.2536904

 Al 
  0.2607210  0.4983862  0.2617519

 Al 
  0.2657195  0.7485335  0.0035357

 Al 
  0.0116281  0.9862383  0.4959420

 Al 
  0.9967922  0.2460658  0.7446525

 Al 
  0.2497277  0.9926996  0.7493255

 Al 
  0.2666093  0.2427565  0.4966301

 Al 
  0.0036706  0.4893929  0.4943629

 Al 
  0.0005445  0.7448641  0.7416712

 Al 
  0.2625662  0.5152616  0.7644745

 Al 
  0.2369858  0.7173803  0.4876343

 Al 
  0.5215175  0.5084798  0.0300208

 Al 
  0.5034070  0.7583498  0.2600144

 Al 
  0.7469073  0.4850478  0.2525110

 Al 
  0.7588795  0.7522400  0.9988553

 Al 
  0.4844290  0.9984691  0.5080058

 Al 
  0.4999691  0.2541137  0.7391528

 Al 
  0.7429991  0.0072682  0.7530395

 Al 
  0.7461202  0.2373212  0.5057757

 Al 
  0.4934335  0.5199025  0.4924830

 Al 
  0.5106814  0.7500173  0.7546272

 Al 
  0.7433654  0.5237860  0.7487204

 Al 
  0.7417677  0.7560925  0.4870687

