32 
charge = 0 
 Al 
  0.9895228  0.9896775  0.9881887

 Al 
  0.0037733  0.2456289  0.2570813

 Al 
  0.2472279  0.9931971  0.2367705

 Al 
  0.2459358  0.2593782  0.0201574

 Al 
  0.4878570  0.0129387  0.9856468

 Al 
  0.5041248  0.2540295  0.2755260

 Al 
  0.7376009  0.0067101  0.2360155

 Al 
  0.7499072  0.2508477  0.0065826

 Al 
  0.0199198  0.5159497  0.9714878

 Al 
  0.9707465  0.7421922  0.2546334

 Al 
  0.2597310  0.4983639  0.2608720

 Al 
  0.2667269  0.7470769  0.0030630

 Al 
  0.0119103  0.9870761  0.4960460

 Al 
  0.9966326  0.2468182  0.7452205

 Al 
  0.2496287  0.9931117  0.7468281

 Al 
  0.2658519  0.2410388  0.4966858

 Al 
  0.0036409  0.4894151  0.4949941

 Al 
  0.0022289  0.7451958  0.7437726

 Al 
  0.2637580  0.5148916  0.7637246

 Al 
  0.2352804  0.7193295  0.4866059

 Al 
  0.5208554  0.5091963  0.0285951

 Al 
  0.5028278  0.7575813  0.2588634

 Al 
  0.7461289  0.4857977  0.2520296

 Al 
  0.7571172  0.7539082  0.9987501

 Al 
  0.4836320  0.9986869  0.5057460

 Al 
  0.4991065  0.2517908  0.7396688

 Al 
  0.7435115  0.0062064  0.7541755

 Al 
  0.7448183  0.2378830  0.5055839

 Al 
  0.4933951  0.5181798  0.4935771

 Al 
  0.5104537  0.7485112  0.7555220

 Al 
  0.7436810  0.5229976  0.7480397

 Al 
  0.7424670  0.7563957  0.4895475

