32 
charge = 0 
 Al 
  0.9877593  0.9870848  0.9885439

 Al 
  0.0021261  0.2458628  0.2627320

 Al 
  0.2480706  0.9954854  0.2377048

 Al 
  0.2447701  0.2555158  0.0224519

 Al 
  0.4836592  0.0079291  0.9825071

 Al 
  0.5000396  0.2459816  0.2802052

 Al 
  0.7262549  0.0133582  0.2253750

 Al 
  0.7521756  0.2502364  0.0104005

 Al 
  0.0259504  0.5141540  0.9642976

 Al 
  0.9671068  0.7390092  0.2499493

 Al 
  0.2627246  0.4980026  0.2621219

 Al 
  0.2618459  0.7536236  0.0054478

 Al 
  0.0098399  0.9839241  0.4951339

 Al 
  0.9979320  0.2437095  0.7429162

 Al 
  0.2494146  0.9915895  0.7575132

 Al 
  0.2667108  0.2491288  0.4976833

 Al 
  0.0026150  0.4890760  0.4930573

 Al 
  0.9946067  0.7449396  0.7333808

 Al 
  0.2602384  0.5150054  0.7650945

 Al 
  0.2428481  0.7149856  0.4924113

 Al 
  0.5217130  0.5057015  0.0322558

 Al 
  0.5048104  0.7614128  0.2624350

 Al 
  0.7512140  0.4835590  0.2555901

 Al 
  0.7632605  0.7460980  0.9991065

 Al 
  0.4878781  0.9964952  0.5149980

 Al 
  0.5028427  0.2630835  0.7389684

 Al 
  0.7415462  0.0100651  0.7487265

 Al 
  0.7513638  0.2359599  0.5058982

 Al 
  0.4956042  0.5239147  0.4907480

 Al 
  0.5101493  0.7558054  0.7515383

 Al 
  0.7428048  0.5240186  0.7505903

 Al 
  0.7401267  0.7552844  0.4802176

