32 
charge = 0 
 Al 
  0.9878286  0.9873546  0.9883743

 Al 
  0.0024838  0.2459111  0.2619140

 Al 
  0.2479531  0.9951723  0.2372729

 Al 
  0.2448146  0.2561593  0.0223640

 Al 
  0.4840986  0.0086741  0.9828078

 Al 
  0.5006769  0.2473207  0.2798228

 Al 
  0.7278996  0.0124833  0.2267561

 Al 
  0.7517796  0.2501832  0.0100564

 Al 
  0.0254690  0.5146664  0.9648322

 Al 
  0.9671935  0.7394622  0.2507611

 Al 
  0.2624944  0.4981350  0.2623831

 Al 
  0.2626863  0.7526026  0.0050233

 Al 
  0.0102940  0.9843337  0.4953616

 Al 
  0.9976202  0.2441686  0.7432380

 Al 
  0.2495805  0.9917591  0.7559230

 Al 
  0.2669905  0.2477934  0.4972873

 Al 
  0.0029652  0.4891528  0.4932107

 Al 
  0.9958356  0.7447750  0.7351950

 Al 
  0.2604537  0.5152356  0.7652233

 Al 
  0.2416799  0.7149324  0.4912851

 Al 
  0.5219284  0.5063029  0.0321135

 Al 
  0.5046235  0.7607297  0.2621640

 Al 
  0.7501572  0.4837496  0.2548017

 Al 
  0.7625835  0.7473974  0.9990817

 Al 
  0.4871182  0.9970150  0.5136676

 Al 
  0.5022647  0.2611368  0.7388112

 Al 
  0.7417962  0.0096022  0.7496300

 Al 
  0.7502129  0.2361653  0.5059527

 Al 
  0.4948876  0.5233602  0.4908420

 Al 
  0.5104141  0.7545827  0.7521645

 Al 
  0.7428704  0.5242711  0.7502834

 Al 
  0.7403433  0.7554131  0.4813908

