32 
charge = 0 
 Al 
  0.9879659  0.9876714  0.9882456

 Al 
  0.0028080  0.2459235  0.2610749

 Al 
  0.2478318  0.9948443  0.2369586

 Al 
  0.2449062  0.2567843  0.0221796

 Al 
  0.4846245  0.0094352  0.9831766

 Al 
  0.5013131  0.2486300  0.2793191

 Al 
  0.7295839  0.0115415  0.2282338

 Al 
  0.7514022  0.2501918  0.0096146

 Al 
  0.0248144  0.5150921  0.9655821

 Al 
  0.9674632  0.7399324  0.2515420

 Al 
  0.2621789  0.4982402  0.2624746

 Al 
  0.2634907  0.7515779  0.0046198

 Al 
  0.0107012  0.9847681  0.4955534

 Al 
  0.9973541  0.2446302  0.7435746

 Al 
  0.2496894  0.9919596  0.7543042

 Al 
  0.2671204  0.2464866  0.4969927

 Al 
  0.0032461  0.4892295  0.4934199

 Al 
  0.9970410  0.7446847  0.7369301

 Al 
  0.2608039  0.5153767  0.7652220

 Al 
  0.2405054  0.7151502  0.4902468

 Al 
  0.5220162  0.5068796  0.0318227

 Al 
  0.5043822  0.7600837  0.2617779

 Al 
  0.7491943  0.4839884  0.2540976

 Al 
  0.7618051  0.7486585  0.9990409

 Al 
  0.4863881  0.9974803  0.5123063

 Al 
  0.5016917  0.2592693  0.7387518

 Al 
  0.7420685  0.0090911  0.7505173

 Al 
  0.7491127  0.2364054  0.5059638

 Al 
  0.4943196  0.5226746  0.4910648

 Al 
  0.5106010  0.7533872  0.7527858

 Al 
  0.7429558  0.5243726  0.7499381

 Al 
  0.7406230  0.7555604  0.4826655

