32 
charge = 0 
 Al 
  0.9877729  0.9867643  0.9888718

 Al 
  0.0015296  0.2457143  0.2639114

 Al 
  0.2482352  0.9959346  0.2385909

 Al 
  0.2447849  0.2545134  0.0224048

 Al 
  0.4831753  0.0068425  0.9821865

 Al 
  0.4990743  0.2439211  0.2805616

 Al 
  0.7238614  0.0145277  0.2234827

 Al 
  0.7528130  0.2504418  0.0107198

 Al 
  0.0263390  0.5132172  0.9638991

 Al 
  0.9673420  0.7383620  0.2486709

 Al 
  0.2629041  0.4977612  0.2614079

 Al 
  0.2605057  0.7551346  0.0061296

 Al 
  0.0090689  0.9833585  0.4947131

 Al 
  0.9984939  0.2430214  0.7424595

 Al 
  0.2490359  0.9914076  0.7598337

 Al 
  0.2660153  0.2511856  0.4984902

 Al 
  0.0019702  0.4889684  0.4929385

 Al 
  0.9927083  0.7453245  0.7305084

 Al 
  0.2601839  0.5144980  0.7646478

 Al 
  0.2445931  0.7155809  0.4942676

 Al 
  0.5211462  0.5047510  0.0321989

 Al 
  0.5049701  0.7625130  0.2626033

 Al 
  0.7529627  0.4833535  0.2569242

 Al 
  0.7640835  0.7440733  0.9991065

 Al 
  0.4890587  0.9956401  0.5169348

 Al 
  0.5037226  0.2661626  0.7393904

 Al 
  0.7412220  0.0106715  0.7473516

 Al 
  0.7531793  0.2357123  0.5057250

 Al 
  0.4969729  0.5244839  0.4908458

 Al 
  0.5096047  0.7576716  0.7505953

 Al 
  0.7427367  0.5233553  0.7509752

 Al 
  0.7399361  0.7551309  0.4786533

