32 
charge = 0 
 Al 
  0.9881751  0.9880340  0.9881565

 Al 
  0.0030939  0.2459049  0.2602161

 Al 
  0.2477056  0.9945027  0.2367519

 Al 
  0.2450460  0.2573920  0.0218999

 Al 
  0.4852285  0.0102074  0.9836110

 Al 
  0.5019492  0.2499035  0.2786929

 Al 
  0.7313066  0.0105416  0.2298055

 Al 
  0.7510420  0.2502562  0.0090812

 Al 
  0.0239926  0.5154324  0.9665450

 Al 
  0.9679100  0.7404163  0.2522920

 Al 
  0.2617754  0.4983182  0.2623979

 Al 
  0.2642629  0.7505544  0.0042387

 Al 
  0.0110601  0.9852285  0.4957118

 Al 
  0.9971289  0.2450993  0.7439236

 Al 
  0.2497451  0.9921860  0.7526608

 Al 
  0.2671006  0.2452082  0.4967910

 Al 
  0.0034590  0.4892976  0.4936835

 Al 
  0.9982266  0.7446698  0.7385872

 Al 
  0.2612804  0.5154299  0.7650921

 Al 
  0.2393285  0.7156341  0.4892938

 Al 
  0.5219754  0.5074353  0.0313784

 Al 
  0.5040939  0.7594748  0.2612853

 Al 
  0.7483293  0.4842805  0.2534788

 Al 
  0.7609264  0.7498861  0.9989877

 Al 
  0.4856913  0.9978825  0.5109091

 Al 
  0.5011175  0.2574774  0.7387889

 Al 
  0.7423618  0.0085318  0.7513861

 Al 
  0.7480620  0.2366776  0.5059353

 Al 
  0.4938939  0.5218640  0.4914150

 Al 
  0.5107074  0.7522227  0.7534033

 Al 
  0.7430647  0.5243255  0.7495607

 Al 
  0.7409584  0.7557237  0.4840392

