32 
charge = 0 
 Al 
  0.9880711  0.9864549  0.9896280

 Al 
  0.0004146  0.2452181  0.2657071

 Al 
  0.2484580  0.9966289  0.2407703

 Al 
  0.2450188  0.2527400  0.0218442

 Al 
  0.4829068  0.0051544  0.9820120

 Al 
  0.4974184  0.2404163  0.2805901

 Al 
  0.7201413  0.0160054  0.2208430

 Al 
  0.7540060  0.2511782  0.0106678

 Al 
  0.0260680  0.5112136  0.9643186

 Al 
  0.9687961  0.7374029  0.2463876

 Al 
  0.2627617  0.4972786  0.2593980

 Al 
  0.2580219  0.7575281  0.0073845

 Al 
  0.0075417  0.9825627  0.4937664

 Al 
  0.9997005  0.2418630  0.7417974

 Al 
  0.2480088  0.9913371  0.7634585

 Al 
  0.2641342  0.2547448  0.5004505

 Al 
  0.0006126  0.4888731  0.4930771

 Al 
  0.9893941  0.7463046  0.7253626

 Al 
  0.2608287  0.5132345  0.7632333

 Al 
  0.2474729  0.7179570  0.4977872

 Al 
  0.5195547  0.5030234  0.0314081

 Al 
  0.5048488  0.7645290  0.2621888

 Al 
  0.7562361  0.4831902  0.2594909

 Al 
  0.7649176  0.7405054  0.9989852

 Al 
  0.4910747  0.9941142  0.5199866

 Al 
  0.5052374  0.2716883  0.7405958

 Al 
  0.7408433  0.0114499  0.7450597

 Al 
  0.7564031  0.2354673  0.5051606

 Al 
  0.5000507  0.5246708  0.4916229

 Al 
  0.5083189  0.7607804  0.7490384

 Al 
  0.7427009  0.5214878  0.7513811

 Al 
  0.7400389  0.7549985  0.4765940

