32 
charge = 0 
 Al 
  0.9879140  0.9865440  0.9892926

 Al 
  0.0008737  0.2454581  0.2650203

 Al 
  0.2483788  0.9963591  0.2397889

 Al 
  0.2448951  0.2534639  0.0221412

 Al 
  0.4829266  0.0058066  0.9820256

 Al 
  0.4980892  0.2418197  0.2806606

 Al 
  0.7215781  0.0154943  0.2218170

 Al 
  0.7535085  0.2508205  0.0107804

 Al 
  0.0263155  0.5120798  0.9639894

 Al 
  0.9680486  0.7377655  0.2473207

 Al 
  0.2628843  0.4974791  0.2603188

 Al 
  0.2590540  0.7565987  0.0068660

 Al 
  0.0081877  0.9828560  0.4941847

 Al 
  0.9991758  0.2423284  0.7420449

 Al 
  0.2484840  0.9913259  0.7620551

 Al 
  0.2649906  0.2533055  0.4995718

 Al 
  0.0011918  0.4888941  0.4929682

 Al 
  0.9907406  0.7458665  0.7274665

 Al 
  0.2604624  0.5137988  0.7638978

 Al 
  0.2463269  0.7168011  0.4963220

 Al 
  0.5202874  0.5037350  0.0318252

 Al 
  0.5049614  0.7636998  0.2624635

 Al 
  0.7548847  0.4832310  0.2584204

 Al 
  0.7646688  0.7419583  0.9990545

 Al 
  0.4902678  0.9947267  0.5187986

 Al 
  0.5046235  0.2694273  0.7400389

 Al 
  0.7409670  0.0111740  0.7459705

 Al 
  0.7550901  0.2355403  0.5054292

 Al 
  0.4987030  0.5247154  0.4912244

 Al 
  0.5088869  0.7595478  0.7496547

 Al 
  0.7427033  0.5223467  0.7512561

 Al 
  0.7399287  0.7550307  0.4773316

