32 
charge = 0 
 Al 
  0.9881652  0.9864277  0.9898124

 Al 
  0.0001819  0.2450745  0.2660314

 Al 
  0.2484902  0.9967601  0.2413160

 Al 
  0.2450943  0.2523724  0.0216598

 Al 
  0.4829414  0.0048413  0.9820343

 Al 
  0.4970769  0.2397220  0.2805158

 Al 
  0.7194557  0.0162158  0.2204012

 Al 
  0.7542659  0.2513898  0.0105638

 Al 
  0.0258762  0.5107507  0.9645612

 Al 
  0.9692552  0.7372358  0.2459123

 Al 
  0.2626677  0.4971771  0.2588845

 Al 
  0.2574860  0.7579736  0.0076518

 Al 
  0.0072039  0.9824303  0.4935350

 Al 
  0.9999839  0.2416304  0.7416848

 Al 
  0.2477377  0.9913631  0.7641305

 Al 
  0.2636577  0.2554676  0.5009368

 Al 
  0.0003094  0.4888743  0.4931612

 Al 
  0.9887134  0.7465447  0.7242983

 Al 
  0.2610650  0.5129239  0.7628558

 Al 
  0.2480397  0.7186340  0.4985434

 Al 
  0.5191439  0.5026583  0.0311532

 Al 
  0.5047584  0.7649498  0.2619945

 Al 
  0.7569254  0.4831803  0.2600403

 Al 
  0.7649980  0.7397703  0.9989406

 Al 
  0.4914744  0.9938134  0.5205596

 Al 
  0.5055480  0.2728367  0.7409113

 Al 
  0.7407975  0.0115700  0.7446129

 Al 
  0.7570640  0.2354438  0.5050059

 Al 
  0.5007784  0.5245867  0.4918618

 Al 
  0.5080095  0.7613819  0.7487377

 Al 
  0.7427058  0.5210051  0.7514232

 Al 
  0.7401292  0.7549936  0.4762722

