32 
charge = 0 
 Al 
  0.9897703  0.9870266  0.9930102

 Al 
  0.9977377  0.2419484  0.2682083

 Al 
  0.2483219  0.9980050  0.2506782

 Al 
  0.2466289  0.2478702  0.0176749

 Al 
  0.4859834  0.0021063  0.9838251

 Al 
  0.4925028  0.2328635  0.2778117

 Al 
  0.7141936  0.0157901  0.2178593

 Al 
  0.7578882  0.2557151  0.0066890

 Al 
  0.0203926  0.5039045  0.9710485

 Al 
  0.9795010  0.7361851  0.2401453

 Al 
  0.2599649  0.4962428  0.2508465

 Al 
  0.2501708  0.7615267  0.0110205

 Al 
  0.0024751  0.9819959  0.4895055

 Al 
  0.0043240  0.2389622  0.7411304

 Al 
  0.2426996  0.9929112  0.7697441

 Al 
  0.2560430  0.2639572  0.5089575

 Al 
  0.9966957  0.4898965  0.4959680

 Al 
  0.9806445  0.7499641  0.7120415

 Al 
  0.2658272  0.5082174  0.7565715

 Al 
  0.2543834  0.7313722  0.5080367

 Al 
  0.5121739  0.4980088  0.0260556

 Al 
  0.5015977  0.7696636  0.2567125

 Al 
  0.7647060  0.4835664  0.2664088

 Al 
  0.7634003  0.7310678  0.9977860

 Al 
  0.4954408  0.9915697  0.5254888

 Al 
  0.5092731  0.2862012  0.7464371

 Al 
  0.7413532  0.0119796  0.7402381

 Al 
  0.7644424  0.2357829  0.5021113

 Al 
  0.5114920  0.5203319  0.4961846

 Al 
  0.5033476  0.7667912  0.7461413

 Al 
  0.7434236  0.5128867  0.7507586

 Al 
  0.7432008  0.7556915  0.4749035

