32 
charge = 0 
 Al 
  0.9898767  0.9871331  0.9932936

 Al 
  0.9976424  0.2416403  0.2681823

 Al 
  0.2482600  0.9980583  0.2514653

 Al 
  0.2467638  0.2475880  0.0173048

 Al 
  0.4863596  0.0020123  0.9840441

 Al 
  0.4921613  0.2325986  0.2775308

 Al 
  0.7141478  0.0155326  0.2179100

 Al 
  0.7581543  0.2561111  0.0062645

 Al 
  0.0198579  0.5033909  0.9716697

 Al 
  0.9804923  0.7361999  0.2397926

 Al 
  0.2596926  0.4962230  0.2502661

 Al 
  0.2496535  0.7615873  0.0112334

 Al 
  0.0021360  0.9820727  0.4891515

 Al 
  0.0046495  0.2388149  0.7411725

 Al 
  0.2422603  0.9930969  0.7698839

 Al 
  0.2554762  0.2644609  0.5095923

 Al 
  0.9965200  0.4900549  0.4962947

 Al 
  0.9801693  0.7501881  0.7113843

 Al 
  0.2661972  0.5078820  0.7560975

 Al 
  0.2547498  0.7324625  0.5086196

 Al 
  0.5116083  0.4977093  0.0256188

 Al 
  0.5012425  0.7698876  0.2561767

 Al 
  0.7650921  0.4836246  0.2667269

 Al 
  0.7631070  0.7305591  0.9976721

 Al 
  0.4956005  0.9915908  0.5256076

 Al 
  0.5094983  0.2869252  0.7468987

 Al 
  0.7414843  0.0119301  0.7400648

 Al 
  0.7648161  0.2358460  0.5018687

 Al 
  0.5122482  0.5198406  0.4965101

 Al 
  0.5030060  0.7669398  0.7460918

 Al 
  0.7435523  0.5122432  0.7506287

 Al 
  0.7435251  0.7557980  0.4749827

