32 
charge = 0 
 Al 
  0.9895389  0.9868360  0.9924533

 Al 
  0.9979778  0.2425474  0.2681736

 Al 
  0.2484258  0.9978813  0.2491003

 Al 
  0.2463591  0.2484728  0.0184075

 Al 
  0.4852693  0.0023439  0.9834092

 Al 
  0.4931984  0.2335206  0.2783600

 Al 
  0.7144485  0.0162232  0.2178543

 Al 
  0.7573412  0.2549304  0.0075083

 Al 
  0.0214482  0.5049564  0.9698196

 Al 
  0.9775618  0.7361962  0.2409039

 Al 
  0.2604970  0.4963084  0.2520581

 Al 
  0.2512462  0.7613126  0.0105663

 Al 
  0.0031756  0.9818895  0.4902059

 Al 
  0.0036508  0.2392889  0.7410858

 Al 
  0.2435771  0.9925561  0.7693382

 Al 
  0.2572212  0.2628669  0.5076617

 Al 
  0.9971078  0.4896094  0.4953542

 Al 
  0.9816766  0.7494864  0.7135129

 Al 
  0.2650537  0.5089204  0.7575541

 Al 
  0.2535914  0.7291830  0.5067794

 Al 
  0.5133174  0.4986436  0.0269343

 Al 
  0.5022771  0.7691389  0.2577558

 Al 
  0.7638199  0.4834587  0.2656762

 Al 
  0.7639288  0.7321766  0.9980100

 Al 
  0.4950510  0.9916192  0.5251287

 Al 
  0.5087879  0.2845812  0.7455089

 Al 
  0.7411254  0.0120477  0.7406626

 Al 
  0.7635909  0.2356690  0.5026026

 Al 
  0.5099079  0.5212712  0.4955027

 Al 
  0.5040530  0.7663680  0.7463133

 Al 
  0.7432070  0.5141998  0.7509913

 Al 
  0.7425672  0.7554985  0.4748069

