32 
charge = 0 
 Al 
  0.9894151  0.9867519  0.9921798

 Al 
  0.9981226  0.2428370  0.2681117

 Al 
  0.2484667  0.9978095  0.2483144

 Al 
  0.2462242  0.2487909  0.0187652

 Al 
  0.4849352  0.0024875  0.9832137

 Al 
  0.4935498  0.2339129  0.2786248

 Al 
  0.7146589  0.0163952  0.2179026

 Al 
  0.7570628  0.2545443  0.0078994

 Al 
  0.0219655  0.5054923  0.9692169

 Al 
  0.9766212  0.7362210  0.2413074

 Al 
  0.2607557  0.4963541  0.2526867

 Al 
  0.2517994  0.7611579  0.0103250

 Al 
  0.0035357  0.9818598  0.4905512

 Al 
  0.0033068  0.2394683  0.7410821

 Al 
  0.2440127  0.9923902  0.7690696

 Al 
  0.2578263  0.2622840  0.5070071

 Al 
  0.9973430  0.4894832  0.4950671

 Al 
  0.9822311  0.7492327  0.7143248

 Al 
  0.2646540  0.5092854  0.7580602

 Al 
  0.2531657  0.7280927  0.5061086

 Al 
  0.5138929  0.4989790  0.0273736

 Al 
  0.5025976  0.7688394  0.2582595

 Al 
  0.7633199  0.4834105  0.2652616

 Al 
  0.7641614  0.7327731  0.9981201

 Al 
  0.4948208  0.9916922  0.5248886

 Al 
  0.5085280  0.2836889  0.7450448

 Al 
  0.7410301  0.0120662  0.7409138

 Al 
  0.7631157  0.2356195  0.5028489

 Al 
  0.5090862  0.5217155  0.4951500

 Al 
  0.5044169  0.7660920  0.7464346

 Al 
  0.7431154  0.5148644  0.7510928

 Al 
  0.7422628  0.7554119  0.4747933

