32 
charge = 0 
 Al 
  0.9891552  0.9866071  0.9916452

 Al 
  0.9984543  0.2433877  0.2679013

 Al 
  0.2485298  0.9976449  0.2467625

 Al 
  0.2459618  0.2494592  0.0194582

 Al 
  0.4843250  0.0028266  0.9828573

 Al 
  0.4942589  0.2348225  0.2791285

 Al 
  0.7152418  0.0166440  0.2181068

 Al 
  0.7564960  0.2537968  0.0086320

 Al 
  0.0229605  0.5065776  0.9680511

 Al 
  0.9748193  0.7363138  0.2421600

 Al 
  0.2612470  0.4964692  0.2539738

 Al 
  0.2529343  0.7607507  0.0098201

 Al 
  0.0042721  0.9818511  0.4912257

 Al 
  0.0026100  0.2398532  0.7411118

 Al 
  0.2448654  0.9920858  0.7683988

 Al 
  0.2590565  0.2610452  0.5056940

 Al 
  0.9978640  0.4892654  0.4945386

 Al 
  0.9834129  0.7487018  0.7160871

 Al 
  0.2638446  0.5100342  0.7590837

 Al 
  0.2522573  0.7259418  0.5046916

 Al 
  0.5150401  0.4996807  0.0282424

 Al 
  0.5031929  0.7681736  0.2592186

 Al 
  0.7622172  0.4833251  0.2643483

 Al 
  0.7645550  0.7340441  0.9983281

 Al 
  0.4942924  0.9919261  0.5242884

 Al 
  0.5079786  0.2817559  0.7441253

 Al 
  0.7408767  0.0120675  0.7414930

 Al 
  0.7620699  0.2355317  0.5033377

 Al 
  0.5073969  0.5225397  0.4944347

 Al 
  0.5051582  0.7654188  0.7467477

 Al 
  0.7429669  0.5161960  0.7512623

 Al 
  0.7416885  0.7552609  0.4748441

