32 
charge = 0 
 Al 
  0.9904089  0.9881701  0.9956364

 Al 
  0.9974605  0.2390797  0.2669756

 Al 
  0.2475880  0.9982897  0.2576098

 Al 
  0.2478281  0.2457094  0.0142765

 Al 
  0.4896490  0.0017573  0.9859462

 Al 
  0.4895513  0.2319353  0.2751955

 Al 
  0.7156180  0.0127122  0.2193171

 Al 
  0.7600997  0.2592446  0.0026855

 Al 
  0.0156106  0.4995681  0.9766026

 Al 
  0.9887110  0.7366826  0.2375699

 Al 
  0.2574241  0.4963418  0.2463937

 Al 
  0.2460163  0.7611084  0.0125489

 Al 
  0.9997104  0.9831976  0.4863076

 Al 
  0.0069204  0.2380427  0.7419373

 Al 
  0.2388718  0.9947255  0.7696117

 Al 
  0.2515903  0.2675573  0.5142245

 Al 
  0.9958554  0.4916700  0.4992760

 Al 
  0.9773489  0.7515903  0.7080380

 Al 
  0.2685238  0.5056903  0.7528452

 Al 
  0.2570343  0.7408953  0.5122296

 Al 
  0.5073066  0.4957712  0.0223157

 Al 
  0.4981140  0.7707341  0.2517338

 Al 
  0.7668853  0.4841988  0.2680313

 Al 
  0.7602161  0.7275283  0.9967737

 Al 
  0.4961079  0.9928605  0.5252327

 Al 
  0.5108485  0.2905636  0.7504554

 Al 
  0.7429026  0.0112222  0.7395587

 Al 
  0.7665895  0.2364512  0.5000693

 Al 
  0.5173184  0.5156044  0.4986622

 Al 
  0.5006398  0.7667479  0.7465212

 Al 
  0.7451277  0.5075157  0.7493169

 Al 
  0.7461227  0.7568388  0.4761051

