32 
charge = 0 
 Al 
  0.9902158  0.9876108  0.9944471

 Al 
  0.9974234  0.2403718  0.2677961

 Al 
  0.2479605  0.9982117  0.2545740

 Al 
  0.2473009  0.2465695  0.0158012

 Al 
  0.4879560  0.0017821  0.9849710

 Al 
  0.4908272  0.2319588  0.2763811

 Al 
  0.7144894  0.0142753  0.2184050

 Al 
  0.7591691  0.2576964  0.0045035

 Al 
  0.0177182  0.5014207  0.9741510

 Al 
  0.9845540  0.7363670  0.2385513

 Al 
  0.2585763  0.4962230  0.2481573

 Al 
  0.2477216  0.7615452  0.0119784

 Al 
  0.0008638  0.9825231  0.4877283

 Al 
  0.0058660  0.2383372  0.7414596

 Al 
  0.2405289  0.9938877  0.7700374

 Al 
  0.2533823  0.2662133  0.5120167

 Al 
  0.9960262  0.4907925  0.4977093

 Al 
  0.9785456  0.7509702  0.7092916

 Al 
  0.2675127  0.5066717  0.7543476

 Al 
  0.2560257  0.7367507  0.5106517

 Al 
  0.5094080  0.4966413  0.0239221

 Al 
  0.4997327  0.7705213  0.2539800

 Al 
  0.7662628  0.4838869  0.2676514

 Al 
  0.7617717  0.7288179  0.9972155

 Al 
  0.4960150  0.9919880  0.5257017

 Al 
  0.5102718  0.2892221  0.7487080

 Al 
  0.7421167  0.0116405  0.7396230

 Al 
  0.7659670  0.2361257  0.5009319

 Al 
  0.5150030  0.5177776  0.4976944

 Al 
  0.5017425  0.7671365  0.7461289

 Al 
  0.7442082  0.5097817  0.7500309

 Al 
  0.7448394  0.7562794  0.4754554

