32 
charge = 0 
 Al 
  0.9904336  0.9883224  0.9959396

 Al 
  0.9975088  0.2387567  0.2667046

 Al 
  0.2474840  0.9982996  0.2583597

 Al 
  0.2479605  0.2455138  0.0138892

 Al 
  0.4900834  0.0017809  0.9861938

 Al 
  0.4892406  0.2320182  0.2748923

 Al 
  0.7160165  0.0122791  0.2196055

 Al 
  0.7603200  0.2596220  0.0022239

 Al 
  0.0150896  0.4991176  0.9772128

 Al 
  0.9897629  0.7367804  0.2373620

 Al 
  0.2571296  0.4963863  0.2460064

 Al 
  0.2456227  0.7609450  0.0126615

 Al 
  0.9994369  0.9834006  0.4859537

 Al 
  0.0071581  0.2379981  0.7420858

 Al 
  0.2384709  0.9949408  0.7694235

 Al 
  0.2511881  0.2678333  0.5147431

 Al 
  0.9958604  0.4919101  0.4996894

 Al 
  0.9771138  0.7517227  0.7078511

 Al 
  0.2687256  0.5054812  0.7525073

 Al 
  0.2572496  0.7419113  0.5125588

 Al 
  0.5067917  0.4955819  0.0219259

 Al 
  0.4976944  0.7707217  0.2511670

 Al 
  0.7669657  0.4842854  0.2680437

 Al 
  0.7597953  0.7272709  0.9966685

 Al 
  0.4960868  0.9931501  0.5250359

 Al 
  0.5109636  0.2907505  0.7508861

 Al 
  0.7431204  0.0110985  0.7395970

 Al 
  0.7666687  0.2365403  0.4998651

 Al 
  0.5178320  0.5150463  0.4988689

 Al 
  0.5003886  0.7665685  0.7466710

 Al 
  0.7454037  0.5069786  0.7491213

 Al 
  0.7464321  0.7569885  0.4762846

