32 
charge = 0 
 Al 
  0.9904485  0.9884808  0.9962477

 Al 
  0.9975707  0.2384362  0.2664064

 Al 
  0.2473776  0.9983070  0.2591072

 Al 
  0.2480917  0.2453245  0.0134993

 Al 
  0.4905215  0.0018143  0.9864437

 Al 
  0.4889337  0.2321345  0.2745842

 Al 
  0.7164621  0.0118299  0.2199186

 Al 
  0.7605354  0.2599970  0.0017611

 Al 
  0.0145711  0.4986709  0.9778241

 Al 
  0.9908210  0.7368843  0.2371690

 Al 
  0.2568313  0.4964383  0.2456388

 Al 
  0.2452416  0.7607618  0.0127630

 Al 
  0.9991684  0.9836171  0.4856022

 Al 
  0.0073833  0.2379647  0.7422467

 Al 
  0.2380761  0.9951562  0.7692045

 Al 
  0.2508044  0.2680870  0.5152468

 Al 
  0.9958851  0.4921576  0.5001114

 Al 
  0.9769034  0.7518489  0.7077137

 Al 
  0.2689050  0.5052881  0.7521831

 Al 
  0.2574514  0.7429211  0.5128657

 Al 
  0.5062819  0.4954037  0.0215410

 Al 
  0.4972687  0.7706846  0.2505977

 Al 
  0.7670177  0.4843758  0.2680226

 Al 
  0.7593634  0.7270383  0.9965645

 Al 
  0.4960509  0.9934681  0.5248082

 Al 
  0.5110663  0.2908792  0.7513143

 Al 
  0.7433481  0.0109673  0.7396565

 Al 
  0.7667182  0.2366318  0.4996671

 Al 
  0.5183209  0.5144820  0.4990619

 Al 
  0.5001460  0.7663593  0.7468417

 Al 
  0.7456995  0.5064502  0.7489171

 Al 
  0.7467365  0.7571432  0.4764702

