32 
charge = 0 
 Al 
  0.9904374  0.9889832  0.9971944

 Al 
  0.9978479  0.2374845  0.2653507

 Al 
  0.2470398  0.9983120  0.2613410

 Al 
  0.2484889  0.2447886  0.0123076

 Al 
  0.4918606  0.0019789  0.9871949

 Al 
  0.4880315  0.2326816  0.2736288

 Al 
  0.7180659  0.0103906  0.2209990

 Al 
  0.7611492  0.2610923  0.0003577

 Al 
  0.0130204  0.4973430  0.9796706

 Al 
  0.9940288  0.7372296  0.2366727

 Al 
  0.2559094  0.4966239  0.2446587

 Al 
  0.2441674  0.7601035  0.0129845

 Al 
  0.9983875  0.9843510  0.4845540

 Al 
  0.0079934  0.2379325  0.7427986

 Al 
  0.2369227  0.9958121  0.7683667

 Al 
  0.2497537  0.2687132  0.5166774

 Al 
  0.9960670  0.4929447  0.5014269

 Al 
  0.9764220  0.7521892  0.7076036

 Al 
  0.2693122  0.5048005  0.7512970

 Al 
  0.2579860  0.7459247  0.5136491

 Al 
  0.5047621  0.4949272  0.0204062

 Al 
  0.4959569  0.7704136  0.2488763

 Al 
  0.7670190  0.4846740  0.2677689

 Al 
  0.7579971  0.7264838  0.9962675

 Al 
  0.4958542  0.9945906  0.5239592

 Al 
  0.5113088  0.2909064  0.7525939

 Al 
  0.7440807  0.0105317  0.7399547

 Al 
  0.7666960  0.2369338  0.4991028

 Al 
  0.5196475  0.5127531  0.4995545

 Al 
  0.4994703  0.7655524  0.7474729

 Al 
  0.7467130  0.5049193  0.7482625

 Al 
  0.7476066  0.7576320  0.4770457

