32 
charge = 0 
 Al 
  0.9904151  0.9891614  0.9975187

 Al 
  0.9979692  0.2371739  0.2649436

 Al 
  0.2469222  0.9983095  0.2620836

 Al 
  0.2486226  0.2446191  0.0119016

 Al 
  0.4923147  0.0020544  0.9874462

 Al 
  0.4877370  0.2329278  0.2732971

 Al 
  0.7186909  0.0098795  0.2214074

 Al 
  0.7613447  0.2614475  0.9998849

 Al 
  0.0125043  0.4969024  0.9802918

 Al 
  0.9951104  0.7373558  0.2365353

 Al 
  0.2555913  0.4966957  0.2443728

 Al 
  0.2438308  0.7598485  0.0130278

 Al 
  0.9981325  0.9846245  0.4842075

 Al 
  0.0081716  0.2379461  0.7430065

 Al 
  0.2365502  0.9960324  0.7680300

 Al 
  0.2494357  0.2688790  0.5171266

 Al 
  0.9961636  0.4932206  0.5018811

 Al 
  0.9763106  0.7522932  0.7076679

 Al 
  0.2694013  0.5046706  0.7510297

 Al 
  0.2581407  0.7469197  0.5138681

 Al 
  0.5042572  0.4947886  0.0200337

 Al 
  0.4955089  0.7702713  0.2482984

 Al 
  0.7669719  0.4847842  0.2676217

 Al 
  0.7575170  0.7263452  0.9961735

 Al 
  0.4957613  0.9950213  0.5236226

 Al 
  0.5113670  0.2907962  0.7530209

 Al 
  0.7443419  0.0103708  0.7400945

 Al 
  0.7666328  0.2370427  0.4989246

 Al 
  0.5200436  0.5121640  0.4996906

 Al 
  0.4992624  0.7652270  0.7477216

 Al 
  0.7470967  0.5044255  0.7480286

 Al 
  0.7478801  0.7578016  0.4772425

