32 
charge = 0 
 Al 
  0.9903829  0.9893446  0.9978479

 Al 
  0.9981041  0.2368670  0.2645079

 Al 
  0.2468021  0.9983045  0.2628273

 Al 
  0.2487575  0.2444520  0.0114895

 Al 
  0.4927739  0.0021410  0.9876974

 Al 
  0.4874474  0.2332050  0.2729580

 Al 
  0.7193592  0.0093535  0.2218393

 Al 
  0.7615328  0.2617977  0.9994109

 Al 
  0.0119895  0.4964630  0.9809193

 Al 
  0.9961982  0.7374858  0.2364116

 Al 
  0.2552683  0.4967724  0.2441067

 Al 
  0.2435053  0.7595787  0.0130550

 Al 
  0.9978801  0.9849116  0.4838659

 Al 
  0.0083387  0.2379709  0.7432268

 Al 
  0.2361839  0.9962527  0.7676637

 Al 
  0.2491349  0.2690226  0.5175622

 Al 
  0.9962786  0.4935040  0.5023427

 Al 
  0.9762252  0.7523934  0.7077830

 Al 
  0.2694681  0.5045567  0.7507747

 Al 
  0.2582855  0.7479122  0.5140674

 Al 
  0.5037523  0.4946599  0.0196624

 Al 
  0.4950547  0.7701017  0.2477167

 Al 
  0.7669014  0.4849005  0.2674410

 Al 
  0.7570256  0.7262289  0.9960819

 Al 
  0.4956586  0.9954792  0.5232600

 Al 
  0.5114153  0.2906255  0.7534466

 Al 
  0.7446104  0.0102037  0.7402530

 Al 
  0.7665425  0.2371566  0.4987513

 Al 
  0.5204185  0.5115675  0.4998119

 Al 
  0.4990619  0.7648743  0.7479902

 Al 
  0.7475026  0.5039379  0.7477872

 Al 
  0.7481437  0.7579749  0.4774405

