32 
charge = 0 
 Al 
  0.9902369  0.9899275  0.9988602

 Al 
  0.9985941  0.2359846  0.2630340

 Al 
  0.2464333  0.9982872  0.2650525

 Al 
  0.2491671  0.2439718  0.0102186

 Al 
  0.4941748  0.0024603  0.9884511

 Al 
  0.4866046  0.2342198  0.2718888

 Al 
  0.7216264  0.0076865  0.2232847

 Al 
  0.7620650  0.2628063  0.9979729

 Al 
  0.0104438  0.4951426  0.9828338

 Al 
  0.9994876  0.7378991  0.2361269

 Al 
  0.2542585  0.4970212  0.2434335

 Al 
  0.2425944  0.7586766  0.0130253

 Al 
  0.9971289  0.9858633  0.4828610

 Al 
  0.0087558  0.2381244  0.7439644

 Al 
  0.2351208  0.9969123  0.7664014

 Al 
  0.2483268  0.2693233  0.5187825

 Al 
  0.9967254  0.4943926  0.5037622

 Al 
  0.9761225  0.7526756  0.7084427

 Al 
  0.2695188  0.5043154  0.7500916

 Al 
  0.2586567  0.7508774  0.5145451

 Al 
  0.5022338  0.4943295  0.0185572

 Al 
  0.4936662  0.7694310  0.2459668

 Al 
  0.7665660  0.4852841  0.2667120

 Al 
  0.7554836  0.7260123  0.9958232

 Al 
  0.4952836  0.9970162  0.5220299

 Al 
  0.5114932  0.2897431  0.7547300

 Al 
  0.7454643  0.0096542  0.7408408

 Al 
  0.7661106  0.2375340  0.4982600

 Al 
  0.5214098  0.5097396  0.5000879

 Al 
  0.4985124  0.7636639  0.7489085

 Al 
  0.7488639  0.5025135  0.7470138

 Al 
  0.7488701  0.7585132  0.4780345

