32 
charge = 0 
 Al 
  0.9900178  0.9905574  0.9999072

 Al 
  0.9991993  0.2351814  0.2613076

 Al 
  0.2460621  0.9982662  0.2672553

 Al 
  0.2495867  0.2435115  0.0088981

 Al 
  0.4956067  0.0028699  0.9891973

 Al 
  0.4858175  0.2354970  0.2707329

 Al 
  0.7242661  0.0058933  0.2249468

 Al 
  0.7625328  0.2637369  0.9965286

 Al 
  0.0089055  0.4938209  0.9848027

 Al 
  0.0027919  0.7383397  0.2359846

 Al 
  0.2531880  0.4972922  0.2429558

 Al 
  0.2417851  0.7576568  0.0127989

 Al 
  0.9963838  0.9869388  0.4819143

 Al 
  0.0090354  0.2383966  0.7448134

 Al 
  0.2341270  0.9975583  0.7649052

 Al 
  0.2476660  0.2694273  0.5198579

 Al 
  0.9973244  0.4953245  0.5052151

 Al 
  0.9762598  0.7529466  0.7095824

 Al 
  0.2693382  0.5042349  0.7495347

 Al 
  0.2589352  0.7538092  0.5148557

 Al 
  0.5007104  0.4940882  0.0174608

 Al 
  0.4922491  0.7685189  0.2442169

 Al 
  0.7660648  0.4857272  0.2657047

 Al 
  0.7538501  0.7259938  0.9955943

 Al 
  0.4948332  0.9987860  0.5206067

 Al 
  0.5114734  0.2883050  0.7560146

 Al 
  0.7463789  0.0090342  0.7415957

 Al 
  0.7654473  0.2379721  0.4978169

 Al 
  0.5222043  0.5078585  0.5002265

 Al 
  0.4980409  0.7622444  0.7499827

 Al 
  0.7504393  0.5011435  0.7461710

 Al 
  0.7494802  0.7590689  0.4786149

