32 
charge = 0 
 Al 
  0.9893025  0.9921341  0.0023514

 Al 
  0.0009480  0.2338609  0.2564489

 Al 
  0.2452960  0.9982550  0.2720286

 Al 
  0.2505631  0.2425325  0.0057101

 Al 
  0.4989679  0.0041260  0.9908433

 Al 
  0.4843349  0.2393025  0.2677009

 Al 
  0.7315257  0.0013947  0.2295196

 Al 
  0.7632679  0.2654237  0.9932875

 Al 
  0.0054923  0.4908396  0.9895154

 Al 
  0.0101344  0.7394114  0.2363163

 Al 
  0.2505124  0.4978961  0.2426786

 Al 
  0.2403520  0.7550233  0.0113324

 Al 
  0.9946673  0.9897901  0.4801359

 Al 
  0.0090614  0.2395228  0.7471623

 Al 
  0.2321890  0.9988874  0.7607185

 Al 
  0.2467279  0.2689174  0.5216598

 Al 
  0.9992265  0.4975472  0.5084587

 Al 
  0.9775543  0.7536186  0.7140538

 Al 
  0.2679781  0.5046817  0.7487525

 Al 
  0.2592112  0.7602507  0.5149795

 Al 
  0.4972316  0.4938691  0.0149918

 Al 
  0.4890327  0.7655524  0.2403569

 Al 
  0.7644386  0.4869846  0.2624165

 Al 
  0.7498762  0.7266979  0.9951884

 Al 
  0.4936649  0.0035877  0.5168135

 Al 
  0.5110601  0.2829427  0.7588956

 Al 
  0.7486238  0.0073548  0.7439001

 Al 
  0.7631392  0.2392580  0.4969865

 Al 
  0.5232377  0.5034404  0.5000285

 Al 
  0.4972910  0.7583684  0.7529281

 Al 
  0.7547708  0.4981944  0.7440003

 Al 
  0.7503193  0.7603336  0.4798389

