32 
charge = 0 
 Al 
  0.9890748  0.9925845  0.0030023

 Al 
  0.0014888  0.2336827  0.2549255

 Al 
  0.2451351  0.9982736  0.2732043

 Al 
  0.2508242  0.2422863  0.0048154

 Al 
  0.4998936  0.0045369  0.9912702

 Al 
  0.4840392  0.2405265  0.2667690

 Al 
  0.7337421  0.0000978  0.2309341

 Al 
  0.7633595  0.2657344  0.9924509

 Al 
  0.0046173  0.4900562  0.9908383

 Al 
  0.0120031  0.7397134  0.2366046

 Al 
  0.2497339  0.4980298  0.2428197

 Al 
  0.2400760  0.7542696  0.0106492

 Al 
  0.9941921  0.9906366  0.4797931

 Al 
  0.0088956  0.2399646  0.7478937

 Al 
  0.2317682  0.9991894  0.7594253

 Al 
  0.2466177  0.2685944  0.5219593

 Al 
  0.9998639  0.4981548  0.5092681

 Al 
  0.9781620  0.7538315  0.7157331

 Al 
  0.2673642  0.5049577  0.7486671

 Al 
  0.2591926  0.7618880  0.5148792

 Al 
  0.4963009  0.4938914  0.0143310

 Al 
  0.4881961  0.7645475  0.2393817

 Al 
  0.7639127  0.4873868  0.2613002

 Al 
  0.7487723  0.7270754  0.9951092

 Al 
  0.4933493  0.0050406  0.5156948

 Al 
  0.5108584  0.2809960  0.7596418

 Al 
  0.7492513  0.0068375  0.7446562

 Al 
  0.7623422  0.2396874  0.4968083

 Al 
  0.5233144  0.5022375  0.4998564

 Al 
  0.4971759  0.7572014  0.7538154

 Al 
  0.7560938  0.4974382  0.7433605

 Al 
  0.7503911  0.7606542  0.4801408

