32 
charge = 0 
 Al 
  0.9891887  0.9923605  0.0026818

 Al 
  0.0012178  0.2337595  0.2556915

 Al 
  0.2452119  0.9982625  0.2726301

 Al 
  0.2506955  0.2424076  0.0052609

 Al 
  0.4994344  0.0043302  0.9910598

 Al 
  0.4841790  0.2399102  0.2672368

 Al 
  0.7326320  0.0007438  0.2302238

 Al 
  0.7633211  0.2655896  0.9928630

 Al 
  0.0050468  0.4904423  0.9901799

 Al 
  0.0110873  0.7395624  0.2364487

 Al 
  0.2501225  0.4979654  0.2427367

 Al 
  0.2402059  0.7546433  0.0110056

 Al 
  0.9944285  0.9902134  0.4799540

 Al 
  0.0089884  0.2397381  0.7475261

 Al 
  0.2319712  0.9990434  0.7600738

 Al 
  0.2466648  0.2687639  0.5218219

 Al 
  0.9995409  0.4978541  0.5088733

 Al 
  0.9778464  0.7537238  0.7148755

 Al 
  0.2676823  0.5048129  0.7487018

 Al 
  0.2592075  0.7610848  0.5149361

 Al 
  0.4967613  0.4938753  0.0146577

 Al 
  0.4886070  0.7650562  0.2398594

 Al 
  0.7641775  0.4871838  0.2618645

 Al 
  0.7493193  0.7268786  0.9951463

 Al 
  0.4935040  0.0043129  0.5162529

 Al 
  0.5109636  0.2819873  0.7592755

 Al 
  0.7489406  0.0070974  0.7442750

 Al 
  0.7627457  0.2394696  0.4968937

 Al 
  0.5232885  0.5028328  0.4999480

 Al 
  0.4972279  0.7577843  0.7533724

 Al 
  0.7554317  0.4978108  0.7436798

 Al 
  0.7503651  0.7604970  0.4799923

