32 
charge = 0 
 Al 
  0.9897381  0.9912220  0.0009678

 Al 
  0.9999047  0.2345008  0.2593473

 Al 
  0.2457057  0.9982513  0.2693926

 Al 
  0.2500111  0.2430734  0.0075368

 Al 
  0.4970558  0.0033637  0.9899250

 Al 
  0.4851096  0.2370081  0.2694867

 Al 
  0.7272276  0.0039998  0.2268068

 Al 
  0.7629177  0.2645587  0.9951005

 Al 
  0.0073957  0.4925140  0.9868175

 Al 
  0.0060443  0.7387963  0.2360032

 Al 
  0.2520630  0.4975657  0.2426897

 Al 
  0.2410858  0.7565517  0.0123434

 Al 
  0.9956425  0.9881194  0.4810591

 Al 
  0.0091604  0.2387951  0.7457663

 Al 
  0.2332199  0.9981696  0.7632060

 Al 
  0.2471586  0.2693344  0.5207638

 Al 
  0.9980632  0.4962811  0.5066556

 Al 
  0.9766497  0.7532239  0.7112024

 Al 
  0.2689137  0.5043203  0.7491077

 Al 
  0.2591184  0.7566692  0.5150067

 Al 
  0.4991943  0.4939347  0.0163816

 Al 
  0.4908358  0.7673754  0.2425028

 Al 
  0.7654287  0.4862309  0.2644386

 Al 
  0.7521534  0.7261707  0.9953963

 Al 
  0.4943369  0.0007549  0.5190362

 Al 
  0.5113571  0.2863249  0.7572831

 Al 
  0.7473343  0.0083486  0.7425016

 Al 
  0.7645723  0.2384783  0.4974234

 Al 
  0.5227910  0.5059514  0.5002277

 Al 
  0.4976548  0.7606542  0.7511893

 Al 
  0.7522053  0.4998305  0.7452663

 Al 
  0.7499493  0.7596258  0.4791681

