32 
charge = 0 
 Al 
  0.9895265  0.9916774  0.0016695

 Al 
  0.0004158  0.2341369  0.2579315

 Al 
  0.2454891  0.9982488  0.2707502

 Al 
  0.2502908  0.2427961  0.0066210

 Al 
  0.4980187  0.0037325  0.9903928

 Al 
  0.4846938  0.2381231  0.2686092

 Al 
  0.7293414  0.0027016  0.2281372

 Al 
  0.7631194  0.2650290  0.9941748

 Al 
  0.0064229  0.4916625  0.9881701

 Al 
  0.0081382  0.7391045  0.2361170

 Al 
  0.2512920  0.4977390  0.2426340

 Al 
  0.2406898  0.7557893  0.0118979

 Al 
  0.9951512  0.9889461  0.4805616

 Al 
  0.0091493  0.2391317  0.7464494

 Al 
  0.2326754  0.9985446  0.7619858

 Al 
  0.2469073  0.2691661  0.5212588

 Al 
  0.9986226  0.4969197  0.5075825

 Al 
  0.9770482  0.7534169  0.7125365

 Al 
  0.2684966  0.5044676  0.7488986

 Al 
  0.2591877  0.7585033  0.5150240

 Al 
  0.4981993  0.4938827  0.0156774

 Al 
  0.4899163  0.7665017  0.2414027

 Al 
  0.7649485  0.4865972  0.2634696

 Al 
  0.7510099  0.7263947  0.9952836

 Al 
  0.4939978  0.0021509  0.5179348

 Al 
  0.5112284  0.2847297  0.7581060

 Al 
  0.7479815  0.0078610  0.7431786

 Al 
  0.7638879  0.2388533  0.4971920

 Al 
  0.5230632  0.5046842  0.5001547

 Al 
  0.4974506  0.7595268  0.7520469

 Al 
  0.7534664  0.4989939  0.7446389

 Al 
  0.7501720  0.7599884  0.4795134

