32 
charge = 0 
 Al 
  0.9883545  0.9940065  0.0049007

 Al 
  0.0033117  0.2338820  0.2495842

 Al 
  0.2448913  0.9984741  0.2762796

 Al 
  0.2515878  0.2415833  0.0019393

 Al 
  0.5028167  0.0060059  0.9925808

 Al 
  0.4835503  0.2448579  0.2634300

 Al 
  0.7412480  0.9958653  0.2358448

 Al 
  0.7631825  0.2660796  0.9900785

 Al 
  0.0021249  0.4877853  0.9951166

 Al 
  0.0172194  0.7406972  0.2382790

 Al 
  0.2471598  0.4982501  0.2440065

 Al 
  0.2395735  0.7519083  0.0074043

 Al 
  0.9926328  0.9934694  0.4793401

 Al 
  0.0077892  0.2418185  0.7504418

 Al 
  0.2308698  0.9999084  0.7550134

 Al 
  0.2467304  0.2670041  0.5222266

 Al 
  0.0022301  0.5000470  0.5113757

 Al 
  0.9809292  0.7546248  0.7224964

 Al 
  0.2646416  0.5062633  0.7488008

 Al 
  0.2588300  0.7664682  0.5141812

 Al 
  0.4934632  0.4941872  0.0122717

 Al 
  0.4857928  0.7608250  0.2366937

 Al 
  0.7620947  0.4888557  0.2571618

 Al 
  0.7453542  0.7288587  0.9949557

 Al 
  0.4925140  0.0099451  0.5120378

 Al 
  0.5099178  0.2734394  0.7617692

 Al 
  0.7512017  0.0050431  0.7473850

 Al 
  0.7594055  0.2413123  0.4963851

 Al 
  0.5228528  0.4985409  0.4990124

 Al 
  0.4970979  0.7533006  0.7567361

 Al 
  0.7605453  0.4952044  0.7412158

 Al 
  0.7500829  0.7614895  0.4810566

