32 
charge = 0 
 Al 
  0.9884436  0.9938233  0.0046730

 Al 
  0.0030667  0.2337756  0.2503280

 Al 
  0.2448926  0.9984283  0.2759504

 Al 
  0.2514962  0.2416687  0.0023204

 Al 
  0.5024355  0.0058005  0.9924100

 Al 
  0.4835664  0.2442503  0.2639102

 Al 
  0.7402270  0.9964284  0.2351641

 Al 
  0.7632568  0.2661032  0.9903569

 Al 
  0.0024207  0.4880563  0.9945473

 Al 
  0.0166118  0.7405648  0.2379820

 Al 
  0.2475063  0.4982451  0.2437788

 Al 
  0.2396045  0.7522103  0.0079414

 Al 
  0.9928444  0.9930833  0.4793302

 Al 
  0.0079909  0.2415326  0.7500891

 Al 
  0.2309415  0.9998366  0.7556161

 Al 
  0.2466734  0.2672665  0.5222588

 Al 
  0.0018860  0.4998020  0.5111504

 Al 
  0.9804836  0.7545097  0.7214692

 Al 
  0.2650735  0.5060542  0.7487439

 Al 
  0.2589055  0.7659349  0.5143075

 Al 
  0.4938233  0.4941290  0.0125402

 Al 
  0.4860811  0.7613608  0.2370019

 Al 
  0.7623447  0.4886441  0.2577583

 Al 
  0.7457886  0.7285691  0.9949668

 Al 
  0.4926006  0.0092780  0.5125229

 Al 
  0.5100713  0.2745582  0.7615180

 Al 
  0.7509517  0.0052918  0.7469977

 Al 
  0.7598262  0.2410735  0.4964272

 Al 
  0.5229840  0.4990100  0.4991473

 Al 
  0.4970806  0.7538278  0.7563487

 Al 
  0.7599451  0.4954817  0.7415078

 Al 
  0.7501745  0.7614029  0.4809353

