32 
charge = 0 
 Al 
  0.9888496  0.9930201  0.0036124

 Al 
  0.0020284  0.2336085  0.2533823

 Al 
  0.2450114  0.9983070  0.2742599

 Al 
  0.2510693  0.2420598  0.0039478

 Al 
  0.5007846  0.0049589  0.9916749

 Al 
  0.4838102  0.2417702  0.2658222

 Al 
  0.7359524  0.9988280  0.2323585

 Al 
  0.7633892  0.2659534  0.9916774

 Al 
  0.0038080  0.4893248  0.9921254

 Al 
  0.0137171  0.7400067  0.2369808

 Al 
  0.2489679  0.4981350  0.2430560

 Al 
  0.2398607  0.7535419  0.0098510

 Al 
  0.9937280  0.9914720  0.4795419

 Al 
  0.0086580  0.2404522  0.7486325

 Al 
  0.2314192  0.9994480  0.7581308

 Al 
  0.2465757  0.2682045  0.5221573

 Al 
  0.0005247  0.4987364  0.5099921

 Al 
  0.9788612  0.7540530  0.7175449

 Al 
  0.2666675  0.5052856  0.7486399

 Al 
  0.2591332  0.7633917  0.5147295

 Al 
  0.4954185  0.4939446  0.0137011

 Al 
  0.4874202  0.7635018  0.2384907

 Al 
  0.7633830  0.4878001  0.2601393

 Al 
  0.7477130  0.7275197  0.9950460

 Al 
  0.4930610  0.0064861  0.5145970

 Al 
  0.5106232  0.2789268  0.7603336

 Al 
  0.7498540  0.0063178  0.7454322

 Al 
  0.7615143  0.2401366  0.4966561

 Al 
  0.5232946  0.5010903  0.4996461

 Al 
  0.4971041  0.7560443  0.7546916

 Al 
  0.7574118  0.4967316  0.7427268

 Al 
  0.7503874  0.7609438  0.4804218

