32 
charge = 0 
 Al 
  0.9879239  0.9951970  0.0061952

 Al 
  0.0050220  0.2355651  0.2440436

 Al 
  0.2453010  0.9991028  0.2775283

 Al 
  0.2521311  0.2410425  0.9992513

 Al 
  0.5054230  0.0075083  0.9938592

 Al 
  0.4840330  0.2494159  0.2595503

 Al 
  0.7485620  0.9919521  0.2408977

 Al 
  0.7619957  0.2650500  0.9886119

 Al 
  0.0004591  0.4863460  0.9991659

 Al 
  0.0204841  0.7416823  0.2412257

 Al 
  0.2447168  0.4979494  0.2463727

 Al 
  0.2396763  0.7499678  0.0024095

 Al 
  0.9910858  0.9963640  0.4803166

 Al 
  0.0058240  0.2442552  0.7530147

 Al 
  0.2309316  0.0002265  0.7507079

 Al 
  0.2475397  0.2646428  0.5212539

 Al 
  0.0049540  0.5017487  0.5122432

 Al 
  0.9849067  0.7554960  0.7311544

 Al 
  0.2608670  0.5080008  0.7495829

 Al 
  0.2580206  0.7692602  0.5129585

 Al 
  0.4910920  0.4947168  0.0103299

 Al 
  0.4841332  0.7566346  0.2351270

 Al 
  0.7602470  0.4905562  0.2524863

 Al 
  0.7426217  0.7314935  0.9949804

 Al 
  0.4922838  0.0147456  0.5086605

 Al 
  0.5084649  0.2644349  0.7631231

 Al 
  0.7528476  0.0031756  0.7503143

 Al 
  0.7562014  0.2432466  0.4961883

 Al 
  0.5211388  0.4955076  0.4979283

 Al 
  0.4974890  0.7495347  0.7593238

 Al 
  0.7647134  0.4934681  0.7391169

 Al 
  0.7489147  0.7617123  0.4820776

