32 
charge = 0 
 Al 
  0.9879115  0.9955225  0.0064564

 Al 
  0.0055455  0.2365403  0.2421613

 Al 
  0.2456388  0.9994975  0.2773675

 Al 
  0.2522536  0.2408854  0.9983825

 Al 
  0.5062113  0.0079897  0.9943542

 Al 
  0.4844797  0.2509863  0.2580268

 Al 
  0.7509381  0.9907368  0.2426130

 Al 
  0.7612705  0.2642889  0.9884028

 Al 
  0.0001225  0.4861467  0.0004901

 Al 
  0.0210534  0.7420425  0.2425598

 Al 
  0.2439446  0.4976796  0.2474791

 Al 
  0.2398285  0.7494443  0.0002512

 Al 
  0.9905661  0.9974024  0.4810975

 Al 
  0.0049639  0.2452094  0.7538550

 Al 
  0.2312336  0.0002834  0.7493280

 Al 
  0.2479617  0.2636553  0.5205955

 Al 
  0.0059675  0.5023081  0.5121652

 Al 
  0.9865700  0.7557831  0.7345998

 Al 
  0.2593250  0.5086407  0.7500012

 Al 
  0.2576432  0.7696723  0.5124165

 Al 
  0.4904002  0.4949124  0.0096456

 Al 
  0.4837731  0.7551087  0.2349191

 Al 
  0.7596109  0.4912096  0.2507834

 Al 
  0.7419274  0.7326172  0.9950411

 Al 
  0.4924199  0.0163160  0.5075912

 Al 
  0.5078016  0.2610626  0.7633397

 Al 
  0.7533290  0.0025222  0.7513267

 Al 
  0.7550839  0.2439830  0.4961574

 Al 
  0.5202032  0.4946748  0.4975595

 Al 
  0.4977353  0.7482984  0.7600540

 Al 
  0.7659720  0.4930164  0.7384276

 Al 
  0.7483157  0.7615638  0.4825516

