32 
charge = 0 
 Al 
  0.9879474  0.9950757  0.0060826

 Al 
  0.0048327  0.2352792  0.2446933

 Al 
  0.2452106  0.9989939  0.2775061

 Al 
  0.2520803  0.2410982  0.9995557

 Al 
  0.5051384  0.0073363  0.9937008

 Al 
  0.4839154  0.2488775  0.2600453

 Al 
  0.7477291  0.9923853  0.2403062

 Al 
  0.7622024  0.2652591  0.9887221

 Al 
  0.0006039  0.4864536  0.9987043

 Al 
  0.0202205  0.7415623  0.2408074

 Al 
  0.2449903  0.4980199  0.2460287

 Al 
  0.2396354  0.7501658  0.0030964

 Al 
  0.9912653  0.9960163  0.4801074

 Al 
  0.0060987  0.2439409  0.7527202

 Al 
  0.2308636  0.0002042  0.7511955

 Al 
  0.2474098  0.2649609  0.5214395

 Al 
  0.0046161  0.5015556  0.5122222

 Al 
  0.9843721  0.7553945  0.7300319

 Al 
  0.2613658  0.5077843  0.7494567

 Al 
  0.2581382  0.7690486  0.5131293

 Al 
  0.4913433  0.4946488  0.0105601

 Al 
  0.4842830  0.7571469  0.2352396

 Al 
  0.7604648  0.4903421  0.2530580

 Al 
  0.7428927  0.7311358  0.9949668

 Al 
  0.4922665  0.0141961  0.5090367

 Al 
  0.5086691  0.2655599  0.7630154

 Al 
  0.7526719  0.0033983  0.7499666

 Al 
  0.7565838  0.2430028  0.4962019

 Al 
  0.5214148  0.4958195  0.4980583

 Al 
  0.4974184  0.7499641  0.7590515

 Al 
  0.7642567  0.4936402  0.7393570

 Al 
  0.7490966  0.7617321  0.4819365

