32 
charge = 0 
 Al 
  0.9880724  0.9946636  0.0056631

 Al 
  0.0042250  0.2345478  0.2467155

 Al 
  0.2450052  0.9987216  0.2772115

 Al 
  0.2519021  0.2412851  0.0005185

 Al 
  0.5042176  0.0067930  0.9932293

 Al 
  0.4836592  0.2472081  0.2615069

 Al 
  0.7450943  0.9937788  0.2384634

 Al 
  0.7627221  0.2657492  0.9891763

 Al 
  0.0011423  0.4869016  0.9972477

 Al 
  0.0191921  0.7412022  0.2396342

 Al 
  0.2458653  0.4981758  0.2450770

 Al 
  0.2395574  0.7508329  0.0050542

 Al 
  0.9918284  0.9949545  0.4796297

 Al 
  0.0068759  0.2430115  0.7517883

 Al 
  0.2307621  0.0001139  0.7527437

 Al 
  0.2470657  0.2658767  0.5218900

 Al 
  0.0035976  0.5009480  0.5120118

 Al 
  0.9828313  0.7550752  0.7267351

 Al 
  0.2628187  0.5071271  0.7491238

 Al 
  0.2584649  0.7681847  0.5136132

 Al 
  0.4921699  0.4944446  0.0112631

 Al 
  0.4848262  0.7587038  0.2357161

 Al 
  0.7611368  0.4897035  0.2547968

 Al 
  0.7438233  0.7301111  0.9949433

 Al 
  0.4922925  0.0124635  0.5102408

 Al 
  0.5092421  0.2689372  0.7625897

 Al 
  0.7520989  0.0040815  0.7488911

 Al 
  0.7577632  0.2422764  0.4962588

 Al 
  0.5221400  0.4968665  0.4984629

 Al 
  0.4972415  0.7513217  0.7581456

 Al 
  0.7627766  0.4942330  0.7401156

 Al 
  0.7495867  0.7617073  0.4815430

