32 
charge = 0 
 Al 
  0.9880216  0.9948084  0.0058178

 Al 
  0.0044354  0.2347706  0.2460299

 Al 
  0.2450621  0.9988033  0.2773477

 Al 
  0.2519665  0.2412195  0.0001893

 Al 
  0.5045369  0.0069786  0.9933865

 Al 
  0.4837285  0.2477736  0.2610230

 Al 
  0.7459965  0.9932986  0.2390884

 Al 
  0.7625650  0.2656081  0.9890043

 Al 
  0.0009455  0.4867321  0.9977452

 Al 
  0.0195758  0.7413234  0.2400116

 Al 
  0.2455646  0.4981338  0.2453814

 Al 
  0.2395760  0.7505977  0.0044193

 Al 
  0.9916378  0.9953121  0.4797634

 Al 
  0.0066247  0.2433184  0.7521063

 Al 
  0.2307782  0.0001485  0.7522128

 Al 
  0.2471734  0.2655772  0.5217576

 Al 
  0.0039379  0.5011559  0.5121071

 Al 
  0.9833350  0.7551841  0.7278229

 Al 
  0.2623410  0.5073462  0.7492265

 Al 
  0.2583610  0.7685115  0.5134573

 Al 
  0.4918816  0.4945126  0.0110254

 Al 
  0.4846282  0.7581815  0.2355341

 Al 
  0.7609091  0.4899163  0.2542139

 Al 
  0.7434929  0.7304453  0.9949483

 Al 
  0.4922702  0.0130563  0.5098262

 Al 
  0.5090577  0.2678098  0.7627494

 Al 
  0.7522982  0.0038501  0.7492550

 Al 
  0.7573647  0.2425177  0.4962366

 Al 
  0.5219160  0.4964989  0.4983256

 Al 
  0.4972935  0.7508576  0.7584625

 Al 
  0.7632889  0.4940226  0.7398569

 Al 
  0.7494332  0.7617296  0.4816705

