32 
charge = 0 
 Al 
  0.9879090  0.9953121  0.0062942

 Al 
  0.0052027  0.2358707  0.2434050

 Al 
  0.2454037  0.9992240  0.2775135

 Al 
  0.2521769  0.2409881  0.9989555

 Al 
  0.5056965  0.0076741  0.9940201

 Al 
  0.4841654  0.2499468  0.2590491

 Al 
  0.7493738  0.9915326  0.2414794

 Al 
  0.7617717  0.2648198  0.9885216

 Al 
  0.0003317  0.4862593  0.9996164

 Al 
  0.0207094  0.7418011  0.2416576

 Al 
  0.2444508  0.4978689  0.2467291

 Al 
  0.2397220  0.7497822  0.0017066

 Al 
  0.9909089  0.9967106  0.4805517

 Al 
  0.0055443  0.2445708  0.7533018

 Al 
  0.2310158  0.0002463  0.7502351

 Al 
  0.2476746  0.2643198  0.5210509

 Al 
  0.0052918  0.5019380  0.5122407

 Al 
  0.9854500  0.7555950  0.7322892

 Al 
  0.2603596  0.5082162  0.7497154

 Al 
  0.2578981  0.7694347  0.5127828

 Al 
  0.4908519  0.4947837  0.0101022

 Al 
  0.4839983  0.7561247  0.2350366

 Al 
  0.7600329  0.4907715  0.2519157

 Al 
  0.7423704  0.7318598  0.9949965

 Al 
  0.4923160  0.0152814  0.5082941

 Al 
  0.5082521  0.2633112  0.7632122

 Al 
  0.7530147  0.0029565  0.7506571

 Al 
  0.7558240  0.2434904  0.4961772

 Al 
  0.5208443  0.4952131  0.4978021

 Al 
  0.4975657  0.7491139  0.7595824

 Al 
  0.7651515  0.4933060  0.7388817

 Al 
  0.7487241  0.7616776  0.4822274

