32 
charge = 0 
 Al 
  0.9883682  0.9961141  0.0066606

 Al 
  0.0066469  0.2399597  0.2375996

 Al 
  0.2470014  0.0011225  0.2752277

 Al 
  0.2523984  0.2405240  0.9962898

 Al 
  0.5078907  0.0089859  0.9959866

 Al 
  0.4863881  0.2548797  0.2535122

 Al 
  0.7565479  0.9880575  0.2468096

 Al 
  0.7585120  0.2612420  0.9887295

 Al 
  0.9998639  0.4865588  0.0036644

 Al 
  0.0211079  0.7431192  0.2466722

 Al 
  0.2422269  0.4965460  0.2509801

 Al 
  0.2404089  0.7485211  0.9938308

 Al 
  0.9893780  0.0002772  0.4843906

 Al 
  0.0024429  0.2478256  0.7557844

 Al 
  0.2327979  0.0004802  0.7461697

 Al 
  0.2492884  0.2607420  0.5180969

 Al 
  0.0086976  0.5037746  0.5109413

 Al 
  0.9915017  0.7563487  0.7445300

 Al 
  0.2548240  0.5101641  0.7513749

 Al 
  0.2564650  0.7692107  0.5107334

 Al 
  0.4889238  0.4953356  0.0076679

 Al 
  0.4833845  0.7510556  0.2352532

 Al 
  0.7579340  0.4931006  0.2462960

 Al 
  0.7408891  0.7360576  0.9953653

 Al 
  0.4934112  0.0200101  0.5050443

 Al 
  0.5056000  0.2519591  0.7631677

 Al 
  0.7543723  0.0007970  0.7537956

 Al 
  0.7523056  0.2460423  0.4961042

 Al 
  0.5168630  0.4931352  0.4967848

 Al 
  0.4986498  0.7452985  0.7613534

 Al 
  0.7685251  0.4923011  0.7368162

 Al 
  0.7463826  0.7604562  0.4843683

