32 
charge = 0 
 Al 
  0.9884832  0.9961636  0.0066420

 Al 
  0.0067534  0.2404646  0.2370761

 Al 
  0.2472167  0.0013910  0.2747797

 Al 
  0.2523972  0.2404819  0.9960435

 Al 
  0.5080590  0.0090726  0.9962403

 Al 
  0.4867036  0.2553376  0.2528860

 Al 
  0.7571841  0.9877778  0.2472984

 Al 
  0.7580763  0.2607557  0.9888607

 Al 
  0.9998923  0.4867111  0.0040283

 Al 
  0.0209767  0.7432726  0.2472402

 Al 
  0.2420474  0.4963653  0.2514727

 Al 
  0.2404968  0.7484518  0.9929719

 Al 
  0.9892567  0.0006609  0.4849352

 Al 
  0.0021113  0.2481560  0.7559948

 Al 
  0.2330776  0.0005223  0.7458232

 Al 
  0.2494691  0.2603485  0.5177083

 Al 
  0.0090429  0.5039652  0.5106876

 Al 
  0.9921699  0.7563908  0.7458566

 Al 
  0.2542176  0.5103250  0.7515668

 Al 
  0.2563017  0.7689966  0.5104945

 Al 
  0.4887716  0.4953740  0.0073882

 Al 
  0.4833894  0.7505445  0.2353819

 Al 
  0.7577174  0.4933592  0.2457366

 Al 
  0.7408408  0.7365390  0.9954247

 Al 
  0.4936018  0.0204223  0.5047423

 Al 
  0.5052720  0.2508044  0.7630662

 Al 
  0.7544837  0.0005767  0.7540778

 Al 
  0.7519776  0.2463133  0.4960955

 Al 
  0.5163519  0.4930078  0.4967167

 Al 
  0.4987921  0.7449483  0.7614462

 Al 
  0.7687590  0.4922628  0.7366393

 Al 
  0.7461103  0.7602359  0.4846728

