32 
charge = 0 
 Al 
  0.9880427  0.9958641  0.0066420

 Al 
  0.0061494  0.2381058  0.2397988

 Al 
  0.2462378  0.0001968  0.2766150

 Al 
  0.2523588  0.2406972  0.9973034

 Al 
  0.5071246  0.0085478  0.9950955

 Al 
  0.4852990  0.2529825  0.2558685

 Al 
  0.7538612  0.9893000  0.2447750

 Al 
  0.7600490  0.2629536  0.9884053

 Al 
  0.9998824  0.4861777  0.0021360

 Al 
  0.0213331  0.7425511  0.2445176

 Al 
  0.2430251  0.4971870  0.2491288

 Al 
  0.2400921  0.7489010  0.9971536

 Al 
  0.9899312  0.9988058  0.4825132

 Al 
  0.0037387  0.2465064  0.7548748

 Al 
  0.2318734  0.0003589  0.7476610

 Al 
  0.2485954  0.2622519  0.5194817

 Al 
  0.0073264  0.5030345  0.5117358

 Al 
  0.9889424  0.7561086  0.7394139

 Al 
  0.2571519  0.5094451  0.7506460

 Al 
  0.2570850  0.7697206  0.5116219

 Al 
  0.4896032  0.4951463  0.0087025

 Al 
  0.4834810  0.7530877  0.2349290

 Al 
  0.7587780  0.4921192  0.2485347

 Al 
  0.7412628  0.7342495  0.9951710

 Al 
  0.4927986  0.0182479  0.5062769

 Al 
  0.5067893  0.2565393  0.7633929

 Al 
  0.7538884  0.0016645  0.7526038

 Al 
  0.7536607  0.2449903  0.4961301

 Al 
  0.5186946  0.4937874  0.4971264

 Al 
  0.4981424  0.7467539  0.7608237

 Al 
  0.7673964  0.4925697  0.7375823

 Al 
  0.7474061  0.7611480  0.4833375

