32 
charge = 0 
 Al 
  0.9904794  0.9964767  0.0060245

 Al 
  0.0073623  0.2460955  0.2327707

 Al 
  0.2498008  0.0048178  0.2681736

 Al 
  0.2521360  0.2400859  0.9937256

 Al 
  0.5090862  0.0092161  0.9995842

 Al 
  0.4907851  0.2593782  0.2459655

 Al 
  0.7626454  0.9857767  0.2516163

 Al 
  0.7527202  0.2548228  0.9912046

 Al 
  0.0007896  0.4895327  0.0070789

 Al 
  0.0182380  0.7451327  0.2532622

 Al 
  0.2407690  0.4942540  0.2568252

 Al 
  0.2416143  0.7483974  0.9844661

 Al 
  0.9886305  0.0048401  0.4919695

 Al 
  0.9988899  0.2513217  0.7576457

 Al 
  0.2369140  0.0013093  0.7430164

 Al 
  0.2512215  0.2561878  0.5129919

 Al 
  0.0123472  0.5059861  0.5070615

 Al 
  0.9991201  0.7562980  0.7597235

 Al 
  0.2477476  0.5111962  0.7535506

 Al 
  0.2545542  0.7651577  0.5077830

 Al 
  0.4876504  0.4955671  0.0040023

 Al 
  0.4839946  0.7455138  0.2376046

 Al 
  0.7553822  0.4962675  0.2403866

 Al 
  0.7413061  0.7418123  0.9962749

 Al 
  0.4962539  0.0236783  0.5017796

 Al 
  0.5013861  0.2394485  0.7610490

 Al 
  0.7553438  0.9982637  0.7563994

 Al 
  0.7490669  0.2492117  0.4959272

 Al 
  0.5101245  0.4925053  0.4965002

 Al 
  0.5005817  0.7418148  0.7614029

 Al 
  0.7698839  0.4926217  0.7353349

 Al 
  0.7431724  0.7570108  0.4889003

