32 
charge = 0 
 Al 
  0.9910648  0.9965224  0.0058314

 Al 
  0.0073672  0.2472477  0.2321890

 Al 
  0.2503713  0.0056062  0.2664757

 Al 
  0.2520321  0.2400178  0.9933011

 Al 
  0.5091196  0.0090491  0.0004220

 Al 
  0.4917603  0.2600168  0.2445164

 Al 
  0.7634882  0.9855799  0.2523155

 Al 
  0.7515036  0.2534949  0.9918556

 Al 
  0.0010705  0.4903582  0.0075132

 Al 
  0.0174434  0.7455683  0.2544577

 Al 
  0.2406552  0.4938184  0.2579031

 Al 
  0.2419212  0.7485409  0.9829749

 Al 
  0.9886751  0.0057188  0.4936464

 Al 
  0.9983256  0.2518761  0.7578659

 Al 
  0.2378781  0.0015445  0.7426241

 Al 
  0.2515185  0.2553586  0.5119140

 Al 
  0.0129177  0.5063920  0.5061631

 Al 
  0.0004455  0.7561532  0.7624363

 Al 
  0.2464420  0.5111492  0.7539132

 Al 
  0.2542139  0.7640971  0.5071878

 Al 
  0.4875229  0.4955671  0.0031966

 Al 
  0.4842174  0.7445770  0.2382147

 Al 
  0.7548822  0.4969049  0.2394362

 Al 
  0.7415858  0.7428952  0.9964952

 Al 
  0.4969098  0.0240681  0.5011856

 Al 
  0.5005173  0.2373595  0.7604463

 Al 
  0.7554577  0.9977910  0.7567163

 Al 
  0.7486003  0.2498144  0.4958641

 Al 
  0.5086939  0.4925660  0.4965658

 Al 
  0.5010024  0.7413049  0.7611702

 Al 
  0.7698208  0.4928667  0.7352173

 Al 
  0.7425783  0.7561730  0.4899856

