32 
charge = 0 
 Al 
  0.9897134  0.9964061  0.0062794

 Al 
  0.0072769  0.2443456  0.2338449

 Al 
  0.2489629  0.0036731  0.2705250

 Al 
  0.2522623  0.2401973  0.9943901

 Al 
  0.5089191  0.0093337  0.9984258

 Al 
  0.4894015  0.2582954  0.2481350

 Al 
  0.7612074  0.9862086  0.2504505

 Al 
  0.7544874  0.2567633  0.9903235

 Al 
  0.0004183  0.4884461  0.0063017

 Al 
  0.0193010  0.7445151  0.2514306

 Al 
  0.2410388  0.4949186  0.2551792

 Al 
  0.2412183  0.7482835  0.9869054

 Al 
  0.9886825  0.0035320  0.4895884

 Al 
  0.9998069  0.2504245  0.7572447

 Al 
  0.2355737  0.0010000  0.7437194

 Al 
  0.2507277  0.2574538  0.5145438

 Al 
  0.0114116  0.5053673  0.5083276

 Al 
  0.9970447  0.7564353  0.7555406

 Al 
  0.2497302  0.5111096  0.7529689

 Al 
  0.2550827  0.7666007  0.5086518

 Al 
  0.4879041  0.4955460  0.0051346

 Al 
  0.4837162  0.7469841  0.2367766

 Al 
  0.7561148  0.4953393  0.2419125

 Al 
  0.7409943  0.7401750  0.9959730

 Al 
  0.4953319  0.0229048  0.5026669

 Al 
  0.5026521  0.2427491  0.7618398

 Al 
  0.7551334  0.9989728  0.7558203

 Al 
  0.7498527  0.2483144  0.4960002

 Al 
  0.5121813  0.4925115  0.4964705

 Al 
  0.4999827  0.7426650  0.7616108

 Al 
  0.7697936  0.4923642  0.7356146

 Al 
  0.7440746  0.7581630  0.4874078

