32 
charge = 0 
 Al 
  0.9890921  0.9963220  0.0064799

 Al 
  0.0071036  0.2426229  0.2351257

 Al 
  0.2481696  0.0026150  0.2725793

 Al 
  0.2523477  0.2403173  0.9950832

 Al 
  0.5086233  0.0093052  0.9973986

 Al 
  0.4881454  0.2570900  0.2502426

 Al 
  0.7595849  0.9867915  0.2491646

 Al 
  0.7561334  0.2585887  0.9895847

 Al 
  0.0001275  0.4875600  0.0053933

 Al 
  0.0201723  0.7439471  0.2496003

 Al 
  0.2414126  0.4955683  0.2535481

 Al 
  0.2408816  0.7482847  0.9894869

 Al 
  0.9888607  0.0022635  0.4874202

 Al 
  0.0007809  0.2494703  0.7567583

 Al 
  0.2343881  0.0007524  0.7445473

 Al 
  0.2501955  0.2587162  0.5159893

 Al 
  0.0104141  0.5047535  0.5094550

 Al 
  0.9949309  0.7564749  0.7513316

 Al 
  0.2516942  0.5108584  0.7523650

 Al 
  0.2556161  0.7678122  0.5094785

 Al 
  0.4882308  0.4954940  0.0061680

 Al 
  0.4835157  0.7485001  0.2360774

 Al 
  0.7568214  0.4944557  0.2435238

 Al 
  0.7408247  0.7385674  0.9957094

 Al 
  0.4945089  0.0219395  0.5035530

 Al 
  0.5038414  0.2461759  0.7624759

 Al 
  0.7548822  0.9996720  0.7551309

 Al 
  0.7507227  0.2474370  0.4960522

 Al 
  0.5140896  0.4926402  0.4965237

 Al 
  0.4994332  0.7436018  0.7616479

 Al 
  0.7694854  0.4922380  0.7360007

 Al 
  0.7449693  0.7591642  0.4861034

