32 
charge = 0 
 Al 
  0.9964630  0.9972749  0.0043735

 Al 
  0.0061284  0.2538822  0.2314786

 Al 
  0.2541545  0.0106777  0.2533847

 Al 
  0.2509455  0.2400054  0.9909163

 Al 
  0.5075145  0.0057336  0.0071048

 Al 
  0.4989221  0.2624152  0.2355638

 Al 
  0.7665351  0.9862544  0.2555319

 Al 
  0.7434125  0.2447305  0.9969172

 Al 
  0.0032672  0.4975632  0.0084798

 Al 
  0.0110094  0.7489703  0.2613695

 Al 
  0.2416069  0.4915784  0.2636577

 Al 
  0.2457514  0.7509368  0.9775902

 Al 
  0.9908903  0.0113868  0.5058933

 Al 
  0.9957440  0.2544726  0.7584451

 Al 
  0.2453455  0.0032659  0.7415697

 Al 
  0.2524615  0.2503725  0.5041260

 Al 
  0.0148396  0.5086110  0.4998317

 Al 
  0.0067769  0.7541000  0.7772363

 Al 
  0.2386577  0.5082038  0.7554329

 Al 
  0.2525048  0.7560430  0.5030593

 Al 
  0.4875031  0.4954421  0.9967588

 Al 
  0.4862742  0.7394721  0.2431451

 Al 
  0.7513353  0.5014603  0.2349067

 Al 
  0.7446042  0.7493899  0.9983503

 Al 
  0.5017363  0.0234320  0.4966635

 Al 
  0.4947045  0.2267214  0.7552794

 Al 
  0.7557015  0.9947738  0.7573672

 Al 
  0.7468219  0.2540035  0.4950064

 Al 
  0.4983503  0.4940028  0.4978986

 Al 
  0.5039949  0.7392233  0.7577187

 Al 
  0.7669200  0.4960175  0.7363237

 Al 
  0.7391231  0.7495829  0.4986189

