32 
charge = 0 
 Al 
  0.9973912  0.9975026  0.0041904

 Al 
  0.0057571  0.2545777  0.2318351

 Al 
  0.2546446  0.0112556  0.2514578

 Al 
  0.2507500  0.2401082  0.9906614

 Al 
  0.5070331  0.0049441  0.0081258

 Al 
  0.4999356  0.2624821  0.2345367

 Al 
  0.7665932  0.9866306  0.2558116

 Al 
  0.7424137  0.2436241  0.9976301

 Al 
  0.0035654  0.4987315  0.0083622

 Al 
  0.0100354  0.7495112  0.2621170

 Al 
  0.2420152  0.4914212  0.2641095

 Al 
  0.2466474  0.7514541  0.9776657

 Al 
  0.9914707  0.0120848  0.5076259

 Al 
  0.9955485  0.2546730  0.7584167

 Al 
  0.2464494  0.0034454  0.7416192

 Al 
  0.2524194  0.2497661  0.5030073

 Al 
  0.0147332  0.5087991  0.4990174

 Al 
  0.0071618  0.7536867  0.7786100

 Al 
  0.2377902  0.5074093  0.7554787

 Al 
  0.2523811  0.7549403  0.5025036

 Al 
  0.4876108  0.4954322  0.9957217

 Al 
  0.4866232  0.7389560  0.2439001

 Al 
  0.7508242  0.5021212  0.2345738

 Al 
  0.7451339  0.7501225  0.9986647

 Al 
  0.5024207  0.0228306  0.4958975

 Al 
  0.4939879  0.2258230  0.7544713

 Al 
  0.7556569  0.9944050  0.7572620

 Al 
  0.7467749  0.2546149  0.4948208

 Al 
  0.4968813  0.4942936  0.4982018

 Al 
  0.5043896  0.7391280  0.7570021

 Al 
  0.7661960  0.4966289  0.7367853

 Al 
  0.7387642  0.7485966  0.4999146

