32 
charge = 0 
 Al 
  0.9960138  0.9971759  0.0044688

 Al 
  0.0062955  0.2535122  0.2313413

 Al 
  0.2539045  0.0103720  0.2543451

 Al 
  0.2510396  0.2399671  0.9910512

 Al 
  0.5077323  0.0060975  0.0065999

 Al 
  0.4984134  0.2623595  0.2361034

 Al 
  0.7664732  0.9860935  0.2553797

 Al 
  0.7439285  0.2452973  0.9965571

 Al 
  0.0031149  0.4969902  0.0085194

 Al 
  0.0114932  0.7487055  0.2609747

 Al 
  0.2414299  0.4916737  0.2633917

 Al 
  0.2453431  0.7506930  0.9776348

 Al 
  0.9906242  0.0110254  0.5050245

 Al 
  0.9958554  0.2543575  0.7584501

 Al 
  0.2447960  0.0031657  0.7415598

 Al 
  0.2524665  0.2506819  0.5046842

 Al 
  0.0148520  0.5085021  0.5002512

 Al 
  0.0065343  0.7542968  0.7764776

 Al 
  0.2391144  0.5085664  0.7553921

 Al 
  0.2525791  0.7566036  0.5033414

 Al 
  0.4874598  0.4954495  0.9972625

 Al 
  0.4861046  0.7397493  0.2427726

 Al 
  0.7515890  0.5011324  0.2351010

 Al 
  0.7443456  0.7490062  0.9981993

 Al 
  0.5013935  0.0236832  0.4970299

 Al 
  0.4950770  0.2272276  0.7556792

 Al 
  0.7557151  0.9949644  0.7574019

 Al 
  0.7468640  0.2537028  0.4950931

 Al 
  0.4990854  0.4938617  0.4977575

 Al 
  0.5037919  0.7392889  0.7580578

 Al 
  0.7672541  0.4957255  0.7361232

 Al 
  0.7393161  0.7500718  0.4979753

