32 
charge = 0 
 Al 
  0.0050220  0.0004579  0.0033241

 Al 
  0.0014975  0.2579575  0.2371801

 Al 
  0.2576704  0.0139746  0.2377296

 Al 
  0.2491560  0.2421143  0.9893768

 Al 
  0.5021967  0.9969643  0.0153755

 Al 
  0.5068016  0.2613608  0.2293451

 Al 
  0.7648309  0.9913036  0.2574031

 Al 
  0.7369400  0.2366628  0.0019999

 Al 
  0.0053079  0.5077360  0.0066507

 Al 
  0.0028390  0.7540753  0.2659113

 Al 
  0.2469618  0.4917442  0.2638273

 Al 
  0.2562559  0.7559415  0.9842285

 Al 
  0.9973331  0.0160487  0.5196599

 Al 
  0.9947218  0.2553574  0.7576469

 Al 
  0.2543129  0.0033414  0.7429385

 Al 
  0.2509368  0.2455250  0.4947713

 Al 
  0.0105849  0.5089538  0.4942627

 Al 
  0.0064106  0.7501757  0.7829055

 Al 
  0.2334365  0.4994060  0.7545097

 Al 
  0.2522276  0.7480867  0.4989567

 Al 
  0.4891961  0.4956376  0.9871393

 Al 
  0.4897418  0.7365304  0.2495570

 Al 
  0.7470447  0.5071048  0.2341840

 Al 
  0.7491981  0.7541755  0.0015371

 Al 
  0.5072571  0.0147517  0.4888508

 Al 
  0.4903631  0.2237216  0.7484951

 Al 
  0.7545394  0.9923816  0.7554577

 Al 
  0.7476350  0.2594253  0.4931031

 Al 
  0.4865502  0.4964408  0.5013341

 Al 
  0.5065776  0.7397047  0.7506807

 Al 
  0.7589451  0.5015185  0.7426291

 Al 
  0.7375093  0.7414237  0.5090268

