32 
charge = 0 
 Al 
  0.0015234  0.9988825  0.0036025

 Al 
  0.0036855  0.2568103  0.2342990

 Al 
  0.2564910  0.0131107  0.2436092

 Al 
  0.2498812  0.2409311  0.9898223

 Al 
  0.5045221  0.0009034  0.0123100

 Al 
  0.5039441  0.2621615  0.2311061

 Al 
  0.7660240  0.9888520  0.2567521

 Al 
  0.7389201  0.2394906  0.0003181

 Al 
  0.0046495  0.5037313  0.0074972

 Al 
  0.0059948  0.7519269  0.2645834

 Al 
  0.2444013  0.4912863  0.2647517

 Al 
  0.2514319  0.7538872  0.9801656

 Al 
  0.9944483  0.0145810  0.5145537

 Al 
  0.9950077  0.2551866  0.7580838

 Al 
  0.2509319  0.0037498  0.7421873

 Al 
  0.2518180  0.2473912  0.4984035

 Al 
  0.0131343  0.5091555  0.4960794

 Al 
  0.0074043  0.7517821  0.7822150

 Al 
  0.2349215  0.5033142  0.7552077

 Al 
  0.2521657  0.7507982  0.5003849

 Al 
  0.4883236  0.4954804  0.9911193

 Al 
  0.4882308  0.7373261  0.2470546

 Al 
  0.7487105  0.5048847  0.2339463

 Al 
  0.7474110  0.7526496  0.0001436

 Al 
  0.5051767  0.0190547  0.4922566

 Al 
  0.4915524  0.2237204  0.7511126

 Al 
  0.7552250  0.9931080  0.7564390

 Al 
  0.7470323  0.2572286  0.4939186

 Al 
  0.4909646  0.4955336  0.4997562

 Al 
  0.5058066  0.7391862  0.7536360

 Al 
  0.7625241  0.4993503  0.7395302

 Al 
  0.7377407  0.7445423  0.5051582

