32 
charge = 0 
 Al 
  0.0038303  0.9998824  0.0034021

 Al 
  0.0022821  0.2576246  0.2361319

 Al 
  0.2573103  0.0137419  0.2396602

 Al 
  0.2494010  0.2416576  0.9895067

 Al 
  0.5029912  0.9983503  0.0143842

 Al 
  0.5058797  0.2616764  0.2298426

 Al 
  0.7652926  0.9904138  0.2571853

 Al 
  0.7375254  0.2375761  0.0014900

 Al 
  0.0051062  0.5063932  0.0069341

 Al 
  0.0038934  0.7533253  0.2655178

 Al 
  0.2460435  0.4915363  0.2642802

 Al 
  0.2545505  0.7552547  0.9826877

 Al 
  0.9963183  0.0156106  0.5179867

 Al 
  0.9948159  0.2553153  0.7578041

 Al 
  0.2531966  0.0035530  0.7426613

 Al 
  0.2512660  0.2461598  0.4959952

 Al 
  0.0115625  0.5090689  0.4948258

 Al 
  0.0068326  0.7507178  0.7828697

 Al 
  0.2338622  0.5007685  0.7547894

 Al 
  0.2521930  0.7489394  0.4994097

 Al 
  0.4888706  0.4955732  0.9885080

 Al 
  0.4892047  0.7367544  0.2487154

 Al 
  0.7476041  0.5063549  0.2340392

 Al 
  0.7486053  0.7537015  0.0010445

 Al 
  0.5065690  0.0163185  0.4900438

 Al 
  0.4906812  0.2235681  0.7493701

 Al 
  0.7548092  0.9925932  0.7558116

 Al 
  0.7474024  0.2586728  0.4933815

 Al 
  0.4880031  0.4961512  0.5007673

 Al 
  0.5063611  0.7394857  0.7516930

 Al 
  0.7602099  0.5008019  0.7414955

 Al 
  0.7375266  0.7424608  0.5077632

