32 
charge = 0 
 Al 
  0.0004257  0.9984617  0.0037263

 Al 
  0.0042956  0.2563289  0.2335280

 Al 
  0.2560492  0.0127184  0.2455906

 Al 
  0.2501114  0.2406539  0.9900054

 Al 
  0.5052312  0.0020506  0.0112556

 Al 
  0.5029503  0.2623261  0.2318573

 Al 
  0.7662826  0.9881838  0.2565331

 Al 
  0.7397134  0.2404856  0.9996782

 Al 
  0.0043983  0.5024330  0.0077595

 Al 
  0.0070281  0.7512784  0.2640414

 Al 
  0.2436897  0.4912430  0.2647790

 Al 
  0.2500483  0.7532313  0.9792127

 Al 
  0.9936055  0.0140043  0.5128211

 Al 
  0.9951166  0.2550963  0.7581976

 Al 
  0.2498008  0.0037486  0.7419942

 Al 
  0.2520321  0.2479902  0.4995805

 Al 
  0.0137221  0.5091307  0.4967638

 Al 
  0.0075293  0.7522920  0.7815974

 Al 
  0.2355477  0.5044713  0.7553463

 Al 
  0.2521806  0.7517883  0.5008972

 Al 
  0.4880996  0.4954520  0.9923469

 Al 
  0.4877902  0.7376714  0.2462440

 Al 
  0.7492525  0.5041706  0.2340008

 Al 
  0.7468219  0.7520729  0.9997352

 Al 
  0.5044825  0.0202106  0.4932639

 Al 
  0.4920858  0.2240223  0.7519714

 Al 
  0.7553772  0.9934026  0.7567026

 Al 
  0.7469049  0.2565430  0.4941674

 Al 
  0.4924509  0.4952181  0.4993107

 Al 
  0.5054836  0.7391057  0.7545493

 Al 
  0.7635637  0.4986374  0.7386998

 Al 
  0.7379288  0.7455732  0.5038414

