32 
charge = 0 
 Al 
  0.0020878  0.9991127  0.0035469

 Al 
  0.0033575  0.2570318  0.2347211

 Al 
  0.2567051  0.0132889  0.2426167

 Al 
  0.2497636  0.2410908  0.9897369

 Al 
  0.5041520  0.0002970  0.0128348

 Al 
  0.5044354  0.2620588  0.2307584

 Al 
  0.7658668  0.9892146  0.2568610

 Al 
  0.7385464  0.2390018  0.0006262

 Al 
  0.0047708  0.5043896  0.0073598

 Al 
  0.0054725  0.7522635  0.2648347

 Al 
  0.2447849  0.4913284  0.2646874

 Al 
  0.2521694  0.7542238  0.9807200

 Al 
  0.9948926  0.0148557  0.5154188

 Al 
  0.9949569  0.2552250  0.7580194

 Al 
  0.2514999  0.0037263  0.7422949

 Al 
  0.2516942  0.2470880  0.4978083

 Al 
  0.0127902  0.5091518  0.4957514

 Al 
  0.0072991  0.7515210  0.7824514

 Al 
  0.2346319  0.5027041  0.7551210

 Al 
  0.2521657  0.7503168  0.5001337

 Al 
  0.4884474  0.4954990  0.9904844

 Al 
  0.4884622  0.7371677  0.2474655

 Al 
  0.7484370  0.5052460  0.2339451

 Al 
  0.7477093  0.7529256  0.0003577

 Al 
  0.5055257  0.0184224  0.4917281

 Al 
  0.4913086  0.2236251  0.7506794

 Al 
  0.7551346  0.9929694  0.7562942

 Al 
  0.7471115  0.2575813  0.4937887

 Al 
  0.4902208  0.4956908  0.4999926

 Al 
  0.5059589  0.7392443  0.7531632

 Al 
  0.7619747  0.4997116  0.7399819

 Al 
  0.7376665  0.7440226  0.5058141

