32 
charge = 0 
 Al 
  0.0056222  0.0007611  0.0032894

 Al 
  0.0010878  0.2581048  0.2377320

 Al 
  0.2578350  0.0140686  0.2367878

 Al 
  0.2490322  0.2423655  0.9893198

 Al 
  0.5018007  0.9962489  0.0158532

 Al 
  0.5072447  0.2611876  0.2291335

 Al 
  0.7645785  0.9917714  0.2575132

 Al 
  0.7366801  0.2362197  0.0022301

 Al 
  0.0053995  0.5084030  0.0065145

 Al 
  0.0023142  0.7544614  0.2660883

 Al 
  0.2474407  0.4918680  0.2635451

 Al 
  0.2571345  0.7562794  0.9850601

 Al 
  0.9978553  0.0162430  0.5204779

 Al 
  0.9946735  0.2553747  0.7575652

 Al 
  0.2548636  0.0032053  0.7430857

 Al 
  0.2507599  0.2452020  0.4941575

 Al 
  0.0100515  0.5088795  0.4940003

 Al 
  0.0061717  0.7499072  0.7828499

 Al 
  0.2332508  0.4987092  0.7543537

 Al 
  0.2522474  0.7476845  0.4987414

 Al 
  0.4893693  0.4956747  0.9864437

 Al 
  0.4900228  0.7364338  0.2499777

 Al 
  0.7467662  0.5074811  0.2342792

 Al 
  0.7494914  0.7544008  0.0017932

 Al 
  0.5075962  0.0139251  0.4882370

 Al 
  0.4902381  0.2238540  0.7480583

 Al 
  0.7543896  0.9922875  0.7552720

 Al 
  0.7477612  0.2598064  0.4929632

 Al 
  0.4858373  0.4965781  0.5016311

 Al 
  0.5066667  0.7398334  0.7501708

 Al 
  0.7582904  0.5018675  0.7432318

 Al 
  0.7375266  0.7409101  0.5096418

