32 
charge = 0 
 Al 
  0.0112878  0.0041446  0.0030209

 Al 
  0.9967143  0.2589129  0.2437874

 Al 
  0.2586184  0.0142456  0.2290147

 Al 
  0.2479060  0.2456908  0.9890265

 Al 
  0.4985174  0.9890104  0.0193938

 Al 
  0.5106294  0.2590775  0.2285147

 Al 
  0.7616331  0.9970125  0.2586283

 Al 
  0.7354809  0.2324798  0.0033031

 Al 
  0.0060133  0.5144300  0.0056099

 Al 
  0.9975422  0.7585602  0.2671687

 Al 
  0.2524788  0.4937181  0.2588906

 Al 
  0.2659349  0.7589142  0.9946525

 Al 
  0.0032078  0.0170846  0.5274021

 Al 
  0.9940114  0.2554960  0.7568202

 Al 
  0.2597681  0.0007326  0.7447861

 Al 
  0.2488169  0.2419608  0.4882543

 Al 
  0.0035493  0.5075838  0.4921167

 Al 
  0.0033501  0.7475657  0.7798686

 Al 
  0.2324340  0.4918383  0.7523081

 Al 
  0.2523625  0.7448035  0.4971276

 Al 
  0.4914633  0.4961549  0.9795963

 Al 
  0.4932083  0.7359957  0.2539800

 Al 
  0.7441760  0.5110514  0.2359611

 Al 
  0.7520630  0.7561928  0.0045592

 Al 
  0.5105391  0.0047213  0.4820133

 Al 
  0.4903631  0.2269665  0.7439087

 Al 
  0.7523328  0.9919472  0.7533142

 Al 
  0.7491362  0.2635847  0.4917578

 Al 
  0.4797213  0.4974345  0.5049255

 Al 
  0.5066742  0.7417677  0.7453591

 Al 
  0.7513960  0.5046161  0.7502463

 Al 
  0.7386714  0.7363039  0.5146849

