32 
charge = 0 
 Al 
  0.0068202  0.0013972  0.0032288

 Al 
  0.0002413  0.2583634  0.2388830

 Al 
  0.2581258  0.0142146  0.2349661

 Al 
  0.2487884  0.2429174  0.9892196

 Al 
  0.5010222  0.9947923  0.0167578

 Al 
  0.5080862  0.2608138  0.2287882

 Al 
  0.7640401  0.9927504  0.2577360

 Al 
  0.7362309  0.2353658  0.0026323

 Al 
  0.0055690  0.5097186  0.0062571

 Al 
  0.0012796  0.7552522  0.2664039

 Al 
  0.2484271  0.4921526  0.2628731

 Al 
  0.2589265  0.7569316  0.9868249

 Al 
  0.9989233  0.0165821  0.5220645

 Al 
  0.9945721  0.2554032  0.7574006

 Al 
  0.2559403  0.0028711  0.7433951

 Al 
  0.2503886  0.2445522  0.4929323

 Al 
  0.0089018  0.5086951  0.4935127

 Al 
  0.0056519  0.7493775  0.7825974

 Al 
  0.2329365  0.4972996  0.7540109

 Al 
  0.2522895  0.7469346  0.4983355

 Al 
  0.4897418  0.4957576  0.9850416

 Al 
  0.4906081  0.7362705  0.2508143

 Al 
  0.7462131  0.5082323  0.2345156

 Al 
  0.7500631  0.7548240  0.0023204

 Al 
  0.5082595  0.0121962  0.4869870

 Al 
  0.4900587  0.2242265  0.7471907

 Al 
  0.7540567  0.9921316  0.7548908

 Al 
  0.7480273  0.2605762  0.4926860

 Al 
  0.4844525  0.4968318  0.5022499

 Al 
  0.5068041  0.7401255  0.7491523

 Al 
  0.7569452  0.5025395  0.7445040

 Al 
  0.7376108  0.7399015  0.5108274

