32 
charge = 0 
 Al 
  0.0102495  0.0034466  0.0030753

 Al 
  0.9975942  0.2588436  0.2425499

 Al 
  0.2586085  0.0143136  0.2302559

 Al 
  0.2481053  0.2449223  0.9890439

 Al 
  0.4990124  0.9904027  0.0189100

 Al 
  0.5101369  0.2595329  0.2284144

 Al 
  0.7622482  0.9959185  0.2584092

 Al 
  0.7355044  0.2331110  0.0032907

 Al 
  0.0059366  0.5133620  0.0056990

 Al 
  0.9983974  0.7577236  0.2670487

 Al 
  0.2514801  0.4932738  0.2600577

 Al 
  0.2642703  0.7585454  0.9926439

 Al 
  0.0021645  0.0170982  0.5262475

 Al 
  0.9941822  0.2554700  0.7569440

 Al 
  0.2588956  0.0013786  0.7444198

 Al 
  0.2492055  0.2425957  0.4893731

 Al 
  0.0049626  0.5079080  0.4923816

 Al 
  0.0039243  0.7479568  0.7807844

 Al 
  0.2324501  0.4931390  0.7527759

 Al 
  0.2523724  0.7451970  0.4973628

 Al 
  0.4910054  0.4960509  0.9809007

 Al 
  0.4925239  0.7360131  0.2532263

 Al 
  0.7446475  0.5103906  0.2355366

 Al 
  0.7516138  0.7558945  0.0039911

 Al 
  0.5100416  0.0066271  0.4832162

 Al 
  0.4901354  0.2261212  0.7446946

 Al 
  0.7528167  0.9919237  0.7537053

 Al 
  0.7488689  0.2628595  0.4919497

 Al 
  0.4807559  0.4973578  0.5042411

 Al 
  0.5068177  0.7412888  0.7462390

 Al 
  0.7527771  0.5042114  0.7487377

 Al 
  0.7382976  0.7371194  0.5138780

