32 
charge = 0 
 Al 
  0.0107767  0.0037968  0.0030481

 Al 
  0.9971524  0.2588832  0.2431699

 Al 
  0.2586233  0.0142852  0.2296124

 Al 
  0.2480038  0.2453010  0.9890327

 Al 
  0.4987513  0.9896985  0.0191674

 Al 
  0.5103955  0.2593065  0.2284516

 Al 
  0.7619412  0.9964643  0.2585194

 Al 
  0.7354784  0.2327880  0.0033105

 Al 
  0.0059774  0.5139065  0.0056470

 Al 
  0.9979617  0.7581419  0.2671143

 Al 
  0.2519826  0.4934929  0.2594872

 Al 
  0.2651131  0.7587421  0.9936476

 Al 
  0.0026905  0.0171031  0.5268415

 Al 
  0.9940993  0.2554824  0.7568796

 Al 
  0.2593386  0.0010643  0.7446018

 Al 
  0.2490100  0.2422764  0.4888075

 Al 
  0.0042597  0.5077484  0.4922430

 Al 
  0.0036347  0.7477551  0.7803438

 Al 
  0.2324328  0.4924806  0.7525444

 Al 
  0.2523712  0.7449879  0.4972390

 Al 
  0.4912331  0.4961029  0.9802423

 Al 
  0.4928630  0.7360007  0.2536075

 Al 
  0.7444087  0.5107260  0.2357445

 Al 
  0.7518427  0.7560467  0.0042758

 Al 
  0.5102978  0.0056755  0.4826085

 Al 
  0.4902369  0.2265333  0.7442985

 Al 
  0.7525778  0.9919299  0.7535085

 Al 
  0.7490050  0.2632258  0.4918494

 Al 
  0.4802250  0.4974036  0.5045827

 Al 
  0.5067559  0.7415227  0.7457923

 Al 
  0.7520841  0.5044243  0.7494876

 Al 
  0.7384758  0.7367036  0.5142963

