32 
charge = 0 
 Al 
  0.0135686  0.0058462  0.0028340

 Al 
  0.9945844  0.2589154  0.2468108

 Al 
  0.2582904  0.0139015  0.2267400

 Al 
  0.2475026  0.2477860  0.9890686

 Al 
  0.4978070  0.9858448  0.0200225

 Al 
  0.5114091  0.2579167  0.2292250

 Al 
  0.7601468  0.9997574  0.2591443

 Al 
  0.7358930  0.2311816  0.0028724

 Al 
  0.0061074  0.5167219  0.0056383

 Al 
  0.9956797  0.7606529  0.2672937

 Al 
  0.2548389  0.4949396  0.2555727

 Al 
  0.2696277  0.7593597  0.9996077

 Al 
  0.0056346  0.0166069  0.5297089

 Al 
  0.9934681  0.2555888  0.7566036

 Al 
  0.2617061  0.9988441  0.7457527

 Al 
  0.2479345  0.2404473  0.4856430

 Al 
  0.9999418  0.5066878  0.4916762

 Al 
  0.0020222  0.7468083  0.7770073

 Al 
  0.2326778  0.4888916  0.7510420

 Al 
  0.2522029  0.7442280  0.4967415

 Al 
  0.4926526  0.4964086  0.9766026

 Al 
  0.4950077  0.7360700  0.2557472

 Al 
  0.7431315  0.5125217  0.2371529

 Al 
  0.7530296  0.7568487  0.0059750

 Al 
  0.5115267  0.0000074  0.4792510

 Al 
  0.4913371  0.2294206  0.7420437

 Al 
  0.7509938  0.9922058  0.7523687

 Al 
  0.7497042  0.2652678  0.4914385

 Al 
  0.4776100  0.4973776  0.5066370

 Al 
  0.5059762  0.7431612  0.7434298

 Al 
  0.7480719  0.5052349  0.7541508

 Al 
  0.7399139  0.7345478  0.5161972

