32 
charge = 0 
 Al 
  0.0127135  0.0051767  0.0029206

 Al 
  0.9954223  0.2589402  0.2456190

 Al 
  0.2584823  0.0140661  0.2275048

 Al 
  0.2476462  0.2469197  0.9890364

 Al 
  0.4979951  0.9870501  0.0198715

 Al 
  0.5111740  0.2583820  0.2288649

 Al 
  0.7607284  0.9986597  0.2589439

 Al 
  0.7356492  0.2316531  0.0031236

 Al 
  0.0060851  0.5158705  0.0055826

 Al 
  0.9963777  0.7598163  0.2672714

 Al 
  0.2539218  0.4944334  0.2569638

 Al 
  0.2682404  0.7592693  0.9976449

 Al 
  0.0046978  0.0168754  0.5288847

 Al 
  0.9937070  0.2555455  0.7566729

 Al 
  0.2609698  0.9996423  0.7453567

 Al 
  0.2482687  0.2410388  0.4866554

 Al 
  0.0013910  0.5070591  0.4918160

 Al 
  0.0025308  0.7470719  0.7782437

 Al 
  0.2325343  0.4900141  0.7515655

 Al 
  0.2522932  0.7443914  0.4968628

 Al 
  0.4921712  0.4963108  0.9777511

 Al 
  0.4942713  0.7360217  0.2550604

 Al 
  0.7435251  0.5119672  0.2366554

 Al 
  0.7526669  0.7565987  0.0054106

 Al 
  0.5111789  0.0018786  0.4803091

 Al 
  0.4908829  0.2283872  0.7427739

 Al 
  0.7515507  0.9920697  0.7527412

 Al 
  0.7494975  0.2646181  0.4915363

 Al 
  0.4783724  0.4974444  0.5059552

 Al 
  0.5063140  0.7425709  0.7441538

 Al 
  0.7493763  0.5050554  0.7525704

 Al 
  0.7393644  0.7352012  0.5156787

