32 
charge = 0 
 Al 
  0.0131516  0.0055133  0.0028798

 Al 
  0.9950015  0.2589327  0.2462180

 Al 
  0.2583969  0.0139882  0.2270989

 Al 
  0.2475707  0.2473479  0.9890500

 Al 
  0.4978850  0.9864363  0.0199644

 Al 
  0.5113039  0.2581493  0.2290332

 Al 
  0.7604351  0.9992092  0.2590453

 Al 
  0.7357581  0.2314093  0.0030110

 Al 
  0.0060987  0.5163074  0.0056024

 Al 
  0.9960212  0.7602346  0.2672863

 Al 
  0.2543847  0.4946834  0.2562782

 Al 
  0.2689496  0.7593300  0.9986313

 Al 
  0.0051730  0.0167541  0.5293129

 Al 
  0.9935919  0.2555666  0.7566358

 Al 
  0.2613447  0.9992500  0.7455522

 Al 
  0.2480979  0.2407406  0.4861430

 Al 
  0.0006670  0.5068747  0.4917405

 Al 
  0.0022722  0.7469333  0.7776410

 Al 
  0.2325986  0.4894436  0.7513069

 Al 
  0.2522524  0.7442985  0.4967972

 Al 
  0.4924113  0.4963603  0.9771682

 Al 
  0.4946364  0.7360440  0.2554069

 Al 
  0.7433246  0.5122506  0.2369016

 Al 
  0.7528526  0.7567249  0.0056940

 Al 
  0.5113608  0.0009393  0.4797720

 Al 
  0.4910995  0.2288958  0.7424063

 Al 
  0.7512759  0.9921328  0.7525543

 Al 
  0.7496040  0.2649473  0.4914819

 Al 
  0.4779776  0.4974184  0.5062967

 Al 
  0.5061544  0.7428605  0.7437837

 Al 
  0.7487191  0.5051569  0.7533575

 Al 
  0.7396305  0.7348658  0.5159522

