32 
charge = 0 
 Al 
  0.0139671  0.0061742  0.0027845

 Al 
  0.9941736  0.2588906  0.2473974

 Al 
  0.2581654  0.0138062  0.2264306

 Al 
  0.2474395  0.2482328  0.9890909

 Al 
  0.4977637  0.9852767  0.0200460

 Al 
  0.5114895  0.2576828  0.2294428

 Al 
  0.7598634  0.0003044  0.2592409

 Al 
  0.7360539  0.2309700  0.0027090

 Al 
  0.0061098  0.5171167  0.0056891

 Al 
  0.9953542  0.7610725  0.2672925

 Al 
  0.2552819  0.4951995  0.2548475

 Al 
  0.2702737  0.7593584  0.0005779

 Al 
  0.0060826  0.0164336  0.5300715

 Al 
  0.9933357  0.2556148  0.7565776

 Al 
  0.2620576  0.9984246  0.7459556

 Al 
  0.2477773  0.2401601  0.4851517

 Al 
  0.9992166  0.5064984  0.4916229

 Al 
  0.0017809  0.7466969  0.7763452

 Al 
  0.2327707  0.4883595  0.7507722

 Al 
  0.2521435  0.7441785  0.4966969

 Al 
  0.4928964  0.4964569  0.9760544

 Al 
  0.4953851  0.7361034  0.2560826

 Al 
  0.7429471  0.5127815  0.2374103

 Al 
  0.7531991  0.7569687  0.0062559

 Al 
  0.5116776  0.9990805  0.4787486

 Al 
  0.4915957  0.2299602  0.7416836

 Al 
  0.7507054  0.9922900  0.7521855

 Al 
  0.7497946  0.2655797  0.4914051

 Al 
  0.4772697  0.4973219  0.5069749

 Al 
  0.5057782  0.7434731  0.7430919

 Al 
  0.7474345  0.5052906  0.7549502

 Al 
  0.7402146  0.7342434  0.5164138

