32 
charge = 0 
 Al 
  0.0173184  0.0098807  0.0014888

 Al 
  0.9892109  0.2580417  0.2544144

 Al 
  0.2549007  0.0119264  0.2267128

 Al 
  0.2473751  0.2549515  0.9898842

 Al 
  0.5005099  0.9801408  0.0173246

 Al 
  0.5104500  0.2545901  0.2343139

 Al 
  0.7567757  0.0074662  0.2601691

 Al 
  0.7402876  0.2297349  0.9984976

 Al 
  0.0056074  0.5205510  0.0077509

 Al 
  0.9923395  0.7667405  0.2666316

 Al 
  0.2602495  0.4990112  0.2436414

 Al 
  0.2755408  0.7561903  0.0125105

 Al 
  0.0107074  0.0115650  0.5320863

 Al 
  0.9907257  0.2562930  0.7567101

 Al 
  0.2660574  0.9919175  0.7490421

 Al 
  0.2466276  0.2369115  0.4795394

 Al 
  0.9898829  0.5038909  0.4918519

 Al 
  0.9993033  0.7463108  0.7649993

 Al 
  0.2352099  0.4830763  0.7465534

 Al 
  0.2502735  0.7452874  0.4969123

 Al 
  0.4960608  0.4968207  0.9706611

 Al 
  0.5010990  0.7369511  0.2601889

 Al 
  0.7412640  0.5149225  0.2413111

 Al 
  0.7550158  0.7585417  0.0098300

 Al 
  0.5120477  0.9875365  0.4739679

 Al 
  0.4965670  0.2382048  0.7370254

 Al 
  0.7463034  0.9942082  0.7497698

 Al 
  0.7498911  0.2688666  0.4921192

 Al 
  0.4751176  0.4952032  0.5112136

 Al 
  0.5014170  0.7486176  0.7400401

 Al 
  0.7401131  0.5040543  0.7658903

 Al 
  0.7457477  0.7315962  0.5169472

