32 
charge = 0 
 Al 
  0.0168544  0.0091320  0.0019170

 Al 
  0.9903037  0.2583090  0.2528996

 Al 
  0.2558920  0.0124684  0.2259504

 Al 
  0.2472477  0.2532387  0.9896070

 Al 
  0.4993193  0.9809353  0.0184471

 Al 
  0.5110131  0.2553190  0.2328697

 Al 
  0.7573845  0.0057967  0.2600168

 Al 
  0.7389758  0.2297547  0.9997822

 Al 
  0.0058203  0.5200126  0.0070454

 Al 
  0.9928518  0.7653755  0.2668853

 Al 
  0.2592198  0.4980632  0.2465187

 Al 
  0.2748552  0.7574687  0.0098460

 Al 
  0.0098460  0.0131479  0.5320479

 Al 
  0.9914893  0.2560690  0.7566135

 Al 
  0.2651787  0.9935709  0.7482464

 Al 
  0.2467217  0.2375786  0.4807151

 Al 
  0.9920078  0.5044998  0.4916514

 Al 
  0.9997859  0.7462403  0.7680833

 Al 
  0.2344562  0.4840392  0.7476672

 Al 
  0.2509009  0.7447639  0.4967502

 Al 
  0.4953505  0.4967910  0.9715880

 Al 
  0.4996188  0.7366851  0.2592607

 Al 
  0.7415413  0.5146577  0.2403185

 Al 
  0.7546347  0.7581456  0.0090156

 Al 
  0.5122457  0.9901267  0.4747550

 Al 
  0.4951760  0.2361108  0.7381268

 Al 
  0.7474358  0.9936439  0.7503564

 Al 
  0.7500903  0.2682417  0.4917467

 Al 
  0.4752463  0.4959160  0.5102780

 Al 
  0.5027078  0.7472477  0.7405401

 Al 
  0.7416242  0.5046458  0.7632852

 Al 
  0.7442057  0.7320034  0.5171712

