32 
charge = 0 
 Al 
  0.0159410  0.0080268  0.0023563

 Al 
  0.9918073  0.2586072  0.2507784

 Al 
  0.2570108  0.0130872  0.2255779

 Al 
  0.2472192  0.2511113  0.9893322

 Al 
  0.4982526  0.9823684  0.0194867

 Al 
  0.5114722  0.2562744  0.2312336

 Al 
  0.7582966  0.0035902  0.2597520

 Al 
  0.7375278  0.2300394  0.0012215

 Al 
  0.0060084  0.5190684  0.0063165

 Al 
  0.9937008  0.7636157  0.2671303

 Al 
  0.2577459  0.4968603  0.2500891

 Al 
  0.2734394  0.7586530  0.0062188

 Al 
  0.0085008  0.0148161  0.5316061

 Al 
  0.9923519  0.2558388  0.7565393

 Al 
  0.2639869  0.9956463  0.7472675

 Al 
  0.2470212  0.2385476  0.4823944

 Al 
  0.9948777  0.5053129  0.4915215

 Al 
  0.0005025  0.7462861  0.7717539

 Al 
  0.2336233  0.4855552  0.7490100

 Al 
  0.2515482  0.7443060  0.4966289

 Al 
  0.4943716  0.4966945  0.9731437

 Al 
  0.4978083  0.7363967  0.2580132

 Al 
  0.7420115  0.5140736  0.2390822

 Al 
  0.7541025  0.7576642  0.0079192

 Al 
  0.5122321  0.9936488  0.4761150

 Al 
  0.4935374  0.2334897  0.7395587

 Al 
  0.7488330  0.9929979  0.7510990

 Al 
  0.7501262  0.2672788  0.4914546

 Al 
  0.4757611  0.4966623  0.5089798

 Al 
  0.5041718  0.7455906  0.7413878

 Al 
  0.7438196  0.5051582  0.7598757

 Al 
  0.7423915  0.7327348  0.5171613

