32 
charge = 0 
 Al 
  0.0175907  0.0114165  0.9998899

 Al 
  0.9865192  0.2572237  0.2579996

 Al 
  0.2518786  0.0101319  0.2306012

 Al 
  0.2481969  0.2598547  0.9909237

 Al 
  0.5050864  0.9792609  0.0130575

 Al 
  0.5081308  0.2526459  0.2389139

 Al 
  0.7555220  0.0118558  0.2603374

 Al 
  0.7445312  0.2306000  0.9945065

 Al 
  0.0047386  0.5212985  0.0101641

 Al 
  0.9915103  0.7704965  0.2656787

 Al 
  0.2626788  0.5015903  0.2355416

 Al 
  0.2757661  0.7513489  0.0191872

 Al 
  0.0122853  0.0060467  0.5309849

 Al 
  0.9882927  0.2571296  0.7570232

 Al 
  0.2683592  0.9873719  0.7513960

 Al 
  0.2470014  0.2354760  0.4768823

 Al 
  0.9846282  0.5023056  0.4928048

 Al 
  0.9982266  0.7468158  0.7556730

 Al 
  0.2375662  0.4812843  0.7431711

 Al 
  0.2480546  0.7472959  0.4975075

 Al 
  0.4976474  0.4966895  0.9695225

 Al 
  0.5054750  0.7378471  0.2625489

 Al 
  0.7408408  0.5147307  0.2441599

 Al 
  0.7559997  0.7598015  0.0118608

 Al 
  0.5105663  0.9811049  0.4730855

 Al 
  0.5007376  0.2440226  0.7340416

 Al 
  0.7429917  0.9959396  0.7480075

 Al 
  0.7485236  0.2700040  0.4937973

 Al 
  0.4758960  0.4928506  0.5132803

 Al 
  0.4974085  0.7525976  0.7392617

 Al 
  0.7369821  0.5017883  0.7726276

 Al 
  0.7503688  0.7311730  0.5155648

