32 
charge = 0 
 Al 
  0.0174447  0.0116690  0.9993886

 Al 
  0.9859289  0.2570170  0.2587533

 Al 
  0.2511064  0.0096060  0.2319118

 Al 
  0.2485025  0.2610799  0.9912405

 Al 
  0.5064465  0.9793253  0.0117717

 Al 
  0.5074031  0.2521781  0.2401700

 Al 
  0.7553042  0.0128917  0.2603225

 Al 
  0.7456933  0.2310344  0.9934731

 Al 
  0.0044552  0.5213393  0.0108373

 Al 
  0.9914299  0.7714160  0.2653780

 Al 
  0.2632048  0.5021979  0.2335726

 Al 
  0.2754690  0.7499245  0.0206747

 Al 
  0.0124907  0.0044490  0.5304527

 Al 
  0.9876392  0.2573882  0.7570850

 Al 
  0.2688988  0.9862965  0.7520222

 Al 
  0.2472340  0.2352247  0.4763725

 Al 
  0.9834996  0.5019232  0.4931278

 Al 
  0.9980100  0.7469791  0.7532214

 Al 
  0.2381726  0.4810306  0.7422628

 Al 
  0.2474073  0.7478801  0.4976622

 Al 
  0.4979221  0.4966165  0.9696117

 Al 
  0.5066160  0.7380996  0.2630674

 Al 
  0.7408099  0.5144485  0.2448839

 Al 
  0.7562410  0.7601554  0.0123038

 Al 
  0.5099847  0.9796990  0.4731870

 Al 
  0.5018118  0.2454247  0.7333263

 Al 
  0.7421328  0.9963925  0.7475162

 Al 
  0.7479902  0.2701364  0.4943604

 Al 
  0.4763452  0.4922281  0.5136256

 Al 
  0.4963628  0.7535803  0.7391911

 Al 
  0.7364920  0.5011324  0.7741374

 Al 
  0.7515482  0.7312348  0.5150896

