32 
charge = 0 
 Al 
  0.0176340  0.0112692  0.0001262

 Al 
  0.9868311  0.2573276  0.2575974

 Al 
  0.2522685  0.0103831  0.2299874

 Al 
  0.2480583  0.2592335  0.9907727

 Al 
  0.5044280  0.9792708  0.0136751

 Al 
  0.5084761  0.2528848  0.2382951

 Al 
  0.7556445  0.0113237  0.2603361

 Al 
  0.7439582  0.2304156  0.9950262

 Al 
  0.0048698  0.5212576  0.0098324

 Al 
  0.9915697  0.7700287  0.2658198

 Al 
  0.2624029  0.5012759  0.2365502

 Al 
  0.2758638  0.7520407  0.0184087

 Al 
  0.0121516  0.0068214  0.5312150

 Al 
  0.9886181  0.2570071  0.7569860

 Al 
  0.2680808  0.9879276  0.7510866

 Al 
  0.2469036  0.2356195  0.4771657

 Al 
  0.9852285  0.5024999  0.4926538

 Al 
  0.9983441  0.7467365  0.7568945

 Al 
  0.2372593  0.4814415  0.7436204

 Al 
  0.2483677  0.7470100  0.4974283

 Al 
  0.4974877  0.4967217  0.9695399

 Al 
  0.5049069  0.7377246  0.2622741

 Al 
  0.7408680  0.5148359  0.2437961

 Al 
  0.7558784  0.7596282  0.0116257

 Al 
  0.5108274  0.9818474  0.4730855

 Al 
  0.5001980  0.2433035  0.7344080

 Al 
  0.7434199  0.9957131  0.7482464

 Al 
  0.7487624  0.2699124  0.4935350

 Al 
  0.4757079  0.4931625  0.5130748

 Al 
  0.4979333  0.7520952  0.7393149

 Al 
  0.7372779  0.5021100  0.7718343

 Al 
  0.7497735  0.7311680  0.5157876

