32 
charge = 0 
 Al 
  0.0172219  0.0118608  0.9988515

 Al 
  0.9853856  0.2568190  0.2594364

 Al 
  0.2503527  0.0090528  0.2333152

 Al 
  0.2488404  0.2622692  0.9915710

 Al 
  0.5078437  0.9794973  0.0104339

 Al 
  0.5066370  0.2517264  0.2414410

 Al 
  0.7551285  0.0138855  0.2602841

 Al 
  0.7468665  0.2315517  0.9924657

 Al 
  0.0041458  0.5213282  0.0115155

 Al 
  0.9914014  0.7723046  0.2650525

 Al 
  0.2636936  0.5027660  0.2316940

 Al 
  0.2750446  0.7484753  0.0220509

 Al 
  0.0126157  0.0028093  0.5298290

 Al 
  0.9869907  0.2576593  0.7571296

 Al 
  0.2694037  0.9852854  0.7526570

 Al 
  0.2475150  0.2350280  0.4759393

 Al 
  0.9824823  0.5015482  0.4934805

 Al 
  0.9978145  0.7471388  0.7507859

 Al 
  0.2387629  0.4808599  0.7413445

 Al 
  0.2467403  0.7484667  0.4978083

 Al 
  0.4981325  0.4965311  0.9698666

 Al 
  0.5077496  0.7383558  0.2635352

 Al 
  0.7408099  0.5140686  0.2455968

 Al 
  0.7564824  0.7605180  0.0127073

 Al 
  0.5093312  0.9784107  0.4734295

 Al 
  0.5028650  0.2467576  0.7326457

 Al 
  0.7412814  0.9968405  0.7470026

 Al 
  0.7473875  0.2701983  0.4949718

 Al 
  0.4768885  0.4916254  0.5138756

 Al 
  0.4953393  0.7545171  0.7391701

 Al 
  0.7361517  0.5004727  0.7755297

 Al 
  0.7526954  0.7313710  0.5145834

