32 
charge = 0 
 Al 
  0.0170846  0.0119326  0.9985719

 Al 
  0.9851332  0.2567237  0.2597495

 Al 
  0.2499851  0.0087669  0.2340429

 Al 
  0.2490186  0.2628447  0.9917393

 Al 
  0.5085478  0.9796223  0.0097508

 Al 
  0.5062435  0.2515074  0.2420771

 Al 
  0.7550542  0.0143632  0.2602582

 Al 
  0.7474519  0.2318400  0.9919781

 Al 
  0.0039825  0.5213046  0.0118534

 Al 
  0.9914051  0.7727353  0.2648805

 Al 
  0.2639238  0.5030333  0.2307992

 Al 
  0.2747871  0.7477513  0.0226919

 Al 
  0.0126467  0.0019826  0.5294849

 Al 
  0.9866727  0.2577991  0.7571432

 Al 
  0.2696401  0.9848102  0.7529788

 Al 
  0.2476697  0.2349512  0.4757562

 Al 
  0.9820195  0.5013613  0.4936674

 Al 
  0.9977254  0.7472155  0.7495842

 Al 
  0.2390463  0.4808054  0.7408829

 Al 
  0.2464036  0.7487562  0.4978751

 Al 
  0.4982117  0.4964853  0.9700584

 Al 
  0.5083115  0.7384832  0.2637468

 Al 
  0.7408198  0.5138409  0.2459482

 Al 
  0.7566036  0.7607012  0.0128942

 Al 
  0.5089810  0.9778155  0.4736028

 Al 
  0.5033798  0.2473937  0.7323227

 Al 
  0.7408618  0.9970596  0.7467378

 Al 
  0.7470633  0.2701995  0.4952923

 Al 
  0.4771954  0.4913358  0.5139622

 Al 
  0.4948431  0.7549626  0.7391775

 Al 
  0.7360403  0.5001485  0.7761744

 Al 
  0.7532511  0.7314663  0.5143211

