32 
charge = 0 
 Al 
  0.0169311  0.0119907  0.9982835

 Al 
  0.9848943  0.2566309  0.2600441

 Al 
  0.2496263  0.0084736  0.2347854

 Al 
  0.2492018  0.2634028  0.9919088

 Al 
  0.5092520  0.9797720  0.0090602

 Al 
  0.5058425  0.2512933  0.2427120

 Al 
  0.7549886  0.0148272  0.2602260

 Al 
  0.7480360  0.2321469  0.9915041

 Al 
  0.0038129  0.5212700  0.0121888

 Al 
  0.9914200  0.7731548  0.2647010

 Al 
  0.2641441  0.5032857  0.2299391

 Al 
  0.2745025  0.7470336  0.0233008

 Al 
  0.0126566  0.0011546  0.5291211

 Al 
  0.9863608  0.2579402  0.7571494

 Al 
  0.2698629  0.9843572  0.7533006

 Al 
  0.2478343  0.2348894  0.4755940

 Al 
  0.9815900  0.5011769  0.4938592

 Al 
  0.9976412  0.7472885  0.7483986

 Al 
  0.2393223  0.4807720  0.7404225

 Al 
  0.2460646  0.7490409  0.4979382

 Al 
  0.4982736  0.4964395  0.9702923

 Al 
  0.5088684  0.7386107  0.2639424

 Al 
  0.7408371  0.5135909  0.2462935

 Al 
  0.7567249  0.7608831  0.0130687

 Al 
  0.5086159  0.9772561  0.4738119

 Al 
  0.5038822  0.2480063  0.7320120

 Al 
  0.7404473  0.9972761  0.7464668

 Al 
  0.7467242  0.2701834  0.4956227

 Al 
  0.4775234  0.4910561  0.5140203

 Al 
  0.4943580  0.7553871  0.7391973

 Al 
  0.7359698  0.4998292  0.7767833

 Al 
  0.7537919  0.7315801  0.5140550

