32 
charge = 0 
 Al 
  0.0137939  0.0113658  0.9938481

 Al 
  0.9832273  0.2557485  0.2622048

 Al 
  0.2457873  0.0040283  0.2450720

 Al 
  0.2518489  0.2686488  0.9940510

 Al 
  0.5177565  0.9839191  0.9999245

 Al 
  0.5002686  0.2489431  0.2506584

 Al 
  0.7546607  0.0194978  0.2594055

 Al 
  0.7551421  0.2377642  0.9871677

 Al 
  0.0008923  0.5199408  0.0160908

 Al 
  0.9924769  0.7772982  0.2615168

 Al 
  0.2662777  0.5048191  0.2231721

 Al 
  0.2686167  0.7395612  0.0277065

 Al 
  0.0108918  0.9912319  0.5225818

 Al 
  0.9833709  0.2597743  0.7562051

 Al 
  0.2710794  0.9812534  0.7577880

 Al 
  0.2503688  0.2355774  0.4757636

 Al 
  0.9792065  0.4986189  0.4968974

 Al 
  0.9969704  0.7474531  0.7351814

 Al 
  0.2419608  0.4821630  0.7344018

 Al 
  0.2418964  0.7516460  0.4981313

 Al 
  0.4976833  0.4958678  0.9772165

 Al 
  0.5155067  0.7401849  0.2647196

 Al 
  0.7416291  0.5081357  0.2502661

 Al 
  0.7585095  0.7630414  0.0142171

 Al 
  0.5028353  0.9732835  0.4796161

 Al 
  0.5089426  0.2534726  0.7296557

 Al 
  0.7357705  0.9995792  0.7422603

 Al 
  0.7413494  0.2680610  0.5005284

 Al 
  0.4836332  0.4890067  0.5118348

 Al 
  0.4897901  0.7582607  0.7405512

 Al 
  0.7388966  0.4969568  0.7811494

 Al 
  0.7589600  0.7348980  0.5102148

