32 
charge = 0 
 Al 
  0.0097842  0.0087991  0.9888372

 Al 
  0.9844612  0.2554676  0.2619338

 Al 
  0.2436377  0.9989258  0.2543080

 Al 
  0.2540518  0.2690906  0.9954074

 Al 
  0.5234691  0.9912022  0.9921996

 Al 
  0.4950126  0.2472019  0.2570405

 Al 
  0.7542869  0.0213368  0.2582112

 Al 
  0.7603695  0.2450671  0.9871615

 Al 
  0.9969160  0.5174434  0.0186538

 Al 
  0.9941513  0.7782956  0.2567088

 Al 
  0.2670685  0.5026286  0.2264108

 Al 
  0.2604487  0.7380897  0.0253874

 Al 
  0.0062472  0.9855477  0.5137394

 Al 
  0.9834365  0.2609104  0.7527808

 Al 
  0.2685473  0.9837991  0.7624858

 Al 
  0.2523155  0.2386973  0.4801557

 Al 
  0.9819081  0.4954309  0.5002475

 Al 
  0.9968442  0.7457564  0.7282375

 Al 
  0.2430944  0.4860589  0.7289305

 Al 
  0.2394263  0.7511621  0.4968925

 Al 
  0.4964804  0.4957663  0.9887382

 Al 
  0.5204643  0.7419076  0.2623323

 Al 
  0.7430672  0.4998899  0.2531620

 Al 
  0.7606356  0.7642567  0.0132964

 Al 
  0.4964321  0.9747735  0.4892097

 Al 
  0.5100960  0.2546025  0.7313598

 Al 
  0.7334191  0.0006448  0.7370291

 Al 
  0.7362928  0.2628929  0.5052559

 Al 
  0.4917442  0.4906812  0.5049342

 Al 
  0.4891825  0.7549948  0.7435634

 Al 
  0.7467205  0.4977959  0.7796285

 Al 
  0.7599884  0.7408804  0.5057584

