32 
charge = 0 
 Al 
  0.0121058  0.0104364  0.9917120

 Al 
  0.9834266  0.2555715  0.2623051

 Al 
  0.2446810  0.0018650  0.2492575

 Al 
  0.2528996  0.2693976  0.9947602

 Al 
  0.5205720  0.9867494  0.9963640

 Al 
  0.4979172  0.2481585  0.2536236

 Al 
  0.7545740  0.0206067  0.2589080

 Al 
  0.7576333  0.2407950  0.9866640

 Al 
  0.9992674  0.5189830  0.0173506

 Al 
  0.9931934  0.7781149  0.2596307

 Al 
  0.2667838  0.5042659  0.2234196

 Al 
  0.2652678  0.7382036  0.0274207

 Al 
  0.0091679  0.9881899  0.5189718

 Al 
  0.9830095  0.2603906  0.7550307

 Al 
  0.2704049  0.9817484  0.7598201

 Al 
  0.2513514  0.2366863  0.4771855

 Al 
  0.9799131  0.4973343  0.4983590

 Al 
  0.9968665  0.7469209  0.7314155

 Al 
  0.2425548  0.4836270  0.7319489

 Al 
  0.2405772  0.7518093  0.4977612

 Al 
  0.4970633  0.4957502  0.9818648

 Al 
  0.5178419  0.7408656  0.2640092

 Al 
  0.7422021  0.5048079  0.2516212

 Al 
  0.7594005  0.7636924  0.0140451

 Al 
  0.5000903  0.9734048  0.4834625

 Al 
  0.5099277  0.2543513  0.7298983

 Al 
  0.7344401  0.0001794  0.7401020

 Al 
  0.7389919  0.2661366  0.5026645

 Al 
  0.4869858  0.4893025  0.5092891

 Al 
  0.4891008  0.7575566  0.7416861

 Al 
  0.7419274  0.4968541  0.7810603

 Al 
  0.7598597  0.7372420  0.5083882

