32 
charge = 0 
 Al 
  0.0113596  0.0099488  0.9907814

 Al 
  0.9836704  0.2555245  0.2622395

 Al 
  0.2442936  0.0009158  0.2509591

 Al 
  0.2533068  0.2694495  0.9950077

 Al 
  0.5216103  0.9881132  0.9949433

 Al 
  0.4969457  0.2478442  0.2547956

 Al 
  0.7545072  0.0209309  0.2586852

 Al 
  0.7585887  0.2421551  0.9866888

 Al 
  0.9985224  0.5185164  0.0178159

 Al 
  0.9935090  0.7782845  0.2587335

 Al 
  0.2669261  0.5038327  0.2240805

 Al 
  0.2637456  0.7379746  0.0269492

 Al 
  0.0082904  0.9871615  0.5173209

 Al 
  0.9830380  0.2606010  0.7543834

 Al 
  0.2699124  0.9822558  0.7606938

 Al 
  0.2517115  0.2372791  0.4780197

 Al 
  0.9804490  0.4967415  0.4989840

 Al 
  0.9968467  0.7465930  0.7301668

 Al 
  0.2427504  0.4843634  0.7309378

 Al 
  0.2401280  0.7517016  0.4975236

 Al 
  0.4968281  0.4957341  0.9840293

 Al 
  0.5187491  0.7411811  0.2635476

 Al 
  0.7424719  0.5032635  0.2521484

 Al 
  0.7597978  0.7639127  0.0138644

 Al 
  0.4989035  0.9737166  0.4852619

 Al 
  0.5101208  0.2545270  0.7302361

 Al 
  0.7340156  0.0003688  0.7391268

 Al 
  0.7380526  0.2651626  0.5035407

 Al 
  0.4884981  0.4896354  0.5079786

 Al 
  0.4890154  0.7569143  0.7422516

 Al 
  0.7434137  0.4970311  0.7807423

 Al 
  0.7600230  0.7383682  0.5075627

