32 
charge = 0 
 Al 
  0.0067447  0.0062423  0.9852371

 Al 
  0.9870600  0.2554391  0.2607866

 Al 
  0.2429942  0.9953035  0.2597891

 Al 
  0.2549936  0.2667430  0.9957156

 Al 
  0.5258589  0.9978825  0.9879400

 Al 
  0.4918222  0.2459086  0.2604487

 Al 
  0.7534466  0.0211339  0.2573078

 Al 
  0.7629412  0.2507623  0.9895463

 Al 
  0.9938530  0.5150067  0.0197441

 Al 
  0.9951995  0.7769021  0.2523613

 Al 
  0.2665932  0.4995421  0.2340775

 Al 
  0.2538785  0.7402022  0.0204866

 Al 
  0.0017227  0.9846022  0.5066866

 Al 
  0.9854908  0.2608472  0.7488577

 Al 
  0.2648173  0.9882741  0.7655883

 Al 
  0.2527697  0.2419360  0.4856727

 Al 
  0.9856430  0.4927244  0.5023068

 Al 
  0.9970299  0.7438010  0.7271039

 Al 
  0.2437194  0.4897332  0.7256695

 Al 
  0.2390302  0.7490372  0.4952762

 Al 
  0.4966759  0.4960881  0.9979852

 Al 
  0.5230211  0.7436860  0.2591939

 Al 
  0.7442787  0.4931513  0.2547696

 Al 
  0.7621095  0.7644597  0.0114710

 Al 
  0.4918135  0.9780642  0.4971227

 Al 
  0.5084414  0.2540035  0.7350416

 Al 
  0.7335095  0.0007215  0.7329489

 Al 
  0.7339798  0.2578177  0.5079476

 Al 
  0.4980954  0.4938704  0.4984357

 Al 
  0.4906119  0.7494282  0.7465026

 Al 
  0.7532498  0.5006621  0.7759814

 Al 
  0.7586023  0.7460274  0.5019987

