32 
charge = 0 
 Al 
  0.0078177  0.0071841  0.9864734

 Al 
  0.9859698  0.2554465  0.2612730

 Al 
  0.2431154  0.9965262  0.2580231

 Al 
  0.2547485  0.2678234  0.9956797

 Al 
  0.5252042  0.9954235  0.9892679

 Al 
  0.4928494  0.2463876  0.2594030

 Al 
  0.7538179  0.0213591  0.2576246

 Al 
  0.7621727  0.2487513  0.9884832

 Al 
  0.9949050  0.5159274  0.0194433

 Al 
  0.9948703  0.7776335  0.2539565

 Al 
  0.2669002  0.5007165  0.2309081

 Al 
  0.2562150  0.7391961  0.0224902

 Al 
  0.0033959  0.9845812  0.5091691

 Al 
  0.9845626  0.2609933  0.7503638

 Al 
  0.2662937  0.9864858  0.7645723

 Al 
  0.2527363  0.2407294  0.4835070

 Al 
  0.9842112  0.4936983  0.5016620

 Al 
  0.9969296  0.7445213  0.7270989

 Al 
  0.2434867  0.4883842  0.7267029

 Al 
  0.2390154  0.7499493  0.4958987

 Al 
  0.4964420  0.4959321  0.9947329

 Al 
  0.5222452  0.7429855  0.2604178

 Al 
  0.7438431  0.4955411  0.2542585

 Al 
  0.7616306  0.7644646  0.0122358

 Al 
  0.4934137  0.9767276  0.4943134

 Al 
  0.5092755  0.2542968  0.7335082

 Al 
  0.7332669  0.0007673  0.7343758

 Al 
  0.7345998  0.2597050  0.5071086

 Al 
  0.4958542  0.4925721  0.5007821

 Al 
  0.4899498  0.7516583  0.7454037

 Al 
  0.7509727  0.4994419  0.7774962

 Al 
  0.7592904  0.7441896  0.5033686

