32 
charge = 0 
 Al 
  0.0052262  0.0048908  0.9836233

 Al 
  0.9890055  0.2553908  0.2599240

 Al 
  0.2430956  0.9937874  0.2618274

 Al 
  0.2551124  0.2646849  0.9956240

 Al 
  0.5263291  0.0015160  0.9865254

 Al 
  0.4906527  0.2451376  0.2615192

 Al 
  0.7527288  0.0204680  0.2568598

 Al 
  0.7636887  0.2535518  0.9914955

 Al 
  0.9925276  0.5135637  0.0199644

 Al 
  0.9955398  0.7752599  0.2500347

 Al 
  0.2657678  0.4978157  0.2394523

 Al 
  0.2506262  0.7420870  0.0171167

 Al 
  0.9992612  0.9854747  0.5033179

 Al 
  0.9872444  0.2602965  0.7465064

 Al 
  0.2624189  0.9911749  0.7667529

 Al 
  0.2524887  0.2437231  0.4891998

 Al 
  0.9878261  0.4913655  0.5029479

 Al 
  0.9972699  0.7428048  0.7280147

 Al 
  0.2441302  0.4917219  0.7245693

 Al 
  0.2394089  0.7474147  0.4943245

 Al 
  0.4974395  0.4964098  0.0024244

 Al 
  0.5237748  0.7448740  0.2572249

 Al 
  0.7449173  0.4898520  0.2553512

 Al 
  0.7626108  0.7642654  0.0100948

 Al 
  0.4896602  0.9802819  0.5010148

 Al 
  0.5067274  0.2535048  0.7377085

 Al 
  0.7343782  0.0004765  0.7310529

 Al 
  0.7336209  0.2550022  0.5088362

 Al 
  0.5011980  0.4960373  0.4951859

 Al 
  0.4918643  0.7457985  0.7481758

 Al 
  0.7562410  0.5027944  0.7733380

 Al 
  0.7572187  0.7485743  0.4999963

