32 
charge = 0 
 Al 
  0.0044565  0.0042374  0.9829192

 Al 
  0.9902047  0.2553190  0.2594005

 Al 
  0.2433122  0.9931835  0.2625600

 Al 
  0.2550356  0.2633880  0.9955175

 Al 
  0.5262994  0.0033835  0.9860985

 Al 
  0.4902455  0.2446834  0.2618138

 Al 
  0.7522635  0.0199470  0.2566309

 Al 
  0.7638681  0.2548921  0.9926798

 Al 
  0.9920029  0.5127630  0.0199458

 Al 
  0.9956302  0.7740817  0.2488676

 Al 
  0.2651045  0.4969717  0.2425486

 Al 
  0.2490718  0.7432243  0.0151725

 Al 
  0.9980125  0.9863781  0.5017623

 Al 
  0.9883446  0.2598064  0.7452428

 Al 
  0.2610700  0.9927875  0.7671415

 Al 
  0.2521558  0.2446277  0.4911997

 Al 
  0.9889585  0.4907294  0.5030803

 Al 
  0.9974531  0.7423630  0.7289466

 Al 
  0.2444013  0.4927466  0.7242674

 Al 
  0.2397876  0.7464445  0.4938345

 Al 
  0.4980682  0.4966276  0.0045122

 Al 
  0.5239320  0.7455906  0.2561160

 Al 
  0.7452539  0.4882964  0.2555579

 Al 
  0.7627246  0.7640562  0.0092310

 Al 
  0.4886577  0.9815442  0.5028687

 Al 
  0.5056062  0.2532573  0.7392914

 Al 
  0.7351233  0.0002500  0.7302225

 Al 
  0.7337483  0.2535493  0.5090998

 Al 
  0.5026880  0.4972749  0.4936810

 Al 
  0.4926439  0.7437837  0.7490694

 Al 
  0.7575467  0.5040382  0.7717440

 Al 
  0.7563252  0.7497723  0.4989778

