32 
charge = 0 
 Al 
  0.0047040  0.0044416  0.9831333

 Al 
  0.9898037  0.2553475  0.2595750

 Al 
  0.2432281  0.9933617  0.2623521

 Al 
  0.2550715  0.2638223  0.9955547

 Al 
  0.5263329  0.0027858  0.9862098

 Al 
  0.4903606  0.2448357  0.2617408

 Al 
  0.7524207  0.0201277  0.2567039

 Al 
  0.7638273  0.2544701  0.9922863

 Al 
  0.9921563  0.5130253  0.0199631

 Al 
  0.9956079  0.7744889  0.2492377

 Al 
  0.2653383  0.4972365  0.2415314

 Al 
  0.2495594  0.7428481  0.0158123

 Al 
  0.9984110  0.9860514  0.5022462

 Al 
  0.9879758  0.2599822  0.7456512

 Al 
  0.2615118  0.9922615  0.7670363

 Al 
  0.2522784  0.2443406  0.4905425

 Al 
  0.9885959  0.4909262  0.5030555

 Al 
  0.9973887  0.7424967  0.7286112

 Al 
  0.2443085  0.4924175  0.7243404

 Al 
  0.2396515  0.7467662  0.4939916

 Al 
  0.4978466  0.4965534  0.0038587

 Al 
  0.5239023  0.7453505  0.2564799

 Al 
  0.7451438  0.4887827  0.2554997

 Al 
  0.7627011  0.7641330  0.0095218

 Al 
  0.4889708  0.9811296  0.5022870

 Al 
  0.5059836  0.2533340  0.7387679

 Al 
  0.7348584  0.0003317  0.7304750

 Al 
  0.7336815  0.2540147  0.5090317

 Al 
  0.5022189  0.4968690  0.4941476

 Al 
  0.4923840  0.7444396  0.7487798

 Al 
  0.7571494  0.5036298  0.7722749

 Al 
  0.7566259  0.7493985  0.4993033

