32 
charge = 0 
 Al 
  0.0030852  0.0032511  0.9820021

 Al 
  0.9926947  0.2550319  0.2583313

 Al 
  0.2440250  0.9925313  0.2631739

 Al 
  0.2546173  0.2607346  0.9952874

 Al 
  0.5256918  0.0065628  0.9859797

 Al 
  0.4899324  0.2437491  0.2618237

 Al 
  0.7512759  0.0186996  0.2562126

 Al 
  0.7637864  0.2570058  0.9949965

 Al 
  0.9915004  0.5112358  0.0196117

 Al 
  0.9956104  0.7713430  0.2469853

 Al 
  0.2634238  0.4956834  0.2484023

 Al 
  0.2466846  0.7454000  0.0114536

 Al 
  0.9959482  0.9888062  0.4994579

 Al 
  0.9905933  0.2585181  0.7430251

 Al 
  0.2585429  0.9957415  0.7673110

 Al 
  0.2512215  0.2460992  0.4949965

 Al 
  0.9908631  0.4898309  0.5028612

 Al 
  0.9979110  0.7418247  0.7313784

 Al 
  0.2450324  0.4945225  0.7243688

 Al 
  0.2407777  0.7445634  0.4930276

 Al 
  0.4995990  0.4971128  0.0077224

 Al 
  0.5236795  0.7470707  0.2539936

 Al 
  0.7458851  0.4859438  0.2557448

 Al 
  0.7625563  0.7634721  0.0073895

 Al 
  0.4871244  0.9839352  0.5057435

 Al 
  0.5032771  0.2529404  0.7423964

 Al 
  0.7370279  0.9996461  0.7291780

 Al 
  0.7345862  0.2510915  0.5091679

 Al 
  0.5050505  0.4995928  0.4915425

 Al 
  0.4942305  0.7401292  0.7506819

 Al 
  0.7592792  0.5063648  0.7684929

 Al 
  0.7544899  0.7515668  0.4972613

