32 
charge = 0 
 Al 
  0.0037548  0.0036954  0.9823858

 Al 
  0.9914286  0.2552027  0.2588733

 Al 
  0.2436253  0.9927751  0.2629932

 Al 
  0.2548673  0.2620712  0.9953987

 Al 
  0.5260804  0.0050505  0.9859302

 Al 
  0.4900166  0.2442243  0.2619016

 Al 
  0.7517784  0.0193555  0.2564192

 Al 
  0.7638916  0.2560294  0.9938468

 Al 
  0.9916663  0.5119945  0.0198282

 Al 
  0.9956487  0.7727773  0.2478590

 Al 
  0.2643248  0.4962663  0.2455225

 Al 
  0.2477736  0.7443295  0.0132939

 Al 
  0.9969185  0.9874981  0.5004963

 Al 
  0.9894609  0.2592124  0.7440882

 Al 
  0.2597854  0.9943023  0.7673222

 Al 
  0.2517289  0.2454136  0.4931204

 Al 
  0.9899646  0.4902220  0.5030456

 Al 
  0.9976660  0.7420375  0.7300802

 Al 
  0.2446983  0.4936711  0.7242055

 Al 
  0.2402480  0.7454940  0.4934050

 Al 
  0.4987934  0.4968615  0.0062497

 Al 
  0.5238961  0.7463170  0.2550480

 Al 
  0.7455708  0.4870093  0.2556841

 Al 
  0.7627048  0.7637914  0.0083350

 Al 
  0.4878261  0.9827546  0.5044230

 Al 
  0.5044527  0.2530667  0.7408495

 Al 
  0.7360081  0.9999728  0.7296037

 Al 
  0.7340800  0.2522573  0.5092013

 Al 
  0.5039540  0.4984555  0.4924793

 Al 
  0.4934323  0.7419014  0.7498973

 Al 
  0.7585417  0.5052299  0.7701376

 Al 
  0.7554131  0.7507574  0.4980756

