32 
charge = 0 
 Al 
  0.0021843  0.0027919  0.9817002

 Al 
  0.9944953  0.2546965  0.2575652

 Al 
  0.2446859  0.9924175  0.2630761

 Al 
  0.2541607  0.2588968  0.9951760

 Al 
  0.5249233  0.0084154  0.9863410

 Al 
  0.4900054  0.2430758  0.2615019

 Al 
  0.7505705  0.0177120  0.2559279

 Al 
  0.7634746  0.2581295  0.9965187

 Al 
  0.9915301  0.5101938  0.0191599

 Al 
  0.9954841  0.7691921  0.2459952

 Al 
  0.2620143  0.4950621  0.2521793

 Al 
  0.2454903  0.7467898  0.0089897

 Al 
  0.9948060  0.9908272  0.4983367

 Al 
  0.9921452  0.2574266  0.7417158

 Al 
  0.2568982  0.9975967  0.7670091

 Al 
  0.2504319  0.2468851  0.4974964

 Al 
  0.9919336  0.4894770  0.5023922

 Al 
  0.9982934  0.7417120  0.7333474

 Al 
  0.2455473  0.4955943  0.7249295

 Al 
  0.2415858  0.7433407  0.4925920

 Al 
  0.5007896  0.4974803  0.0093956

 Al 
  0.5231140  0.7481474  0.2525556

 Al 
  0.7463232  0.4847916  0.2557510

 Al 
  0.7621591  0.7629560  0.0060121

 Al 
  0.4863336  0.9855081  0.5072385

 Al 
  0.5016682  0.2528810  0.7444829

 Al 
  0.7386119  0.9991300  0.7288909

 Al 
  0.7355057  0.2496819  0.5089426

 Al 
  0.5063301  0.5010705  0.4906428

 Al 
  0.4953307  0.7378867  0.7517016

 Al 
  0.7599401  0.5078016  0.7661688

 Al 
  0.7532350  0.7524306  0.4962712

