32 
charge = 0 
 Al 
  0.0003737  0.0023031  0.9817323

 Al 
  0.9981647  0.2537238  0.2560084

 Al 
  0.2461957  0.9927033  0.2620514

 Al 
  0.2529949  0.2554292  0.9951958

 Al 
  0.5228293  0.0114289  0.9877395

 Al 
  0.4905463  0.2417628  0.2604339

 Al 
  0.7492253  0.0155859  0.2553475

 Al 
  0.7624932  0.2597681  0.9992191

 Al 
  0.9922925  0.5081159  0.0177999

 Al 
  0.9951079  0.7645933  0.2446748

 Al 
  0.2588510  0.4942874  0.2589352

 Al 
  0.2439458  0.7492055  0.0043958

 Al 
  0.9931043  0.9951809  0.4968120

 Al 
  0.9950646  0.2549998  0.7396478

 Al 
  0.2538748  0.0008490  0.7656180

 Al 
  0.2487525  0.2479865  0.5021001

 Al 
  0.9935783  0.4893161  0.5009554

 Al 
  0.9991721  0.7419992  0.7374697

 Al 
  0.2467019  0.4974519  0.7269578

 Al 
  0.2433085  0.7412331  0.4919781

 Al 
  0.5031929  0.4982290  0.0118893

 Al 
  0.5212700  0.7503614  0.2497587

 Al 
  0.7472415  0.4833461  0.2556148

 Al 
  0.7608608  0.7617507  0.0031026

 Al 
  0.4852173  0.9884436  0.5094067

 Al 
  0.4986882  0.2531050  0.7483714

 Al 
  0.7421019  0.9979704  0.7291644

 Al 
  0.7377716  0.2474395  0.5080825

 Al 
  0.5082929  0.5036644  0.4898965

 Al 
  0.4974494  0.7341344  0.7535221

 Al 
  0.7604091  0.5101332  0.7614487

 Al 
  0.7509257  0.7534998  0.4946711

