32 
charge = 0 
 Al 
  0.0019492  0.0026991  0.9816593

 Al 
  0.9949730  0.2545901  0.2573623

 Al 
  0.2448740  0.9924224  0.2629956

 Al 
  0.2540233  0.2584241  0.9951587

 Al 
  0.5246857  0.0088597  0.9864821

 Al 
  0.4900525  0.2429001  0.2613868

 Al 
  0.7503874  0.0174422  0.2558537

 Al 
  0.7633682  0.2583845  0.9968999

 Al 
  0.9915833  0.5099215  0.0190139

 Al 
  0.9954421  0.7686055  0.2457750

 Al 
  0.2616207  0.4949297  0.2531248

 Al 
  0.2452304  0.7471338  0.0083622

 Al 
  0.9945411  0.9913829  0.4980904

 Al 
  0.9925437  0.2571222  0.7414039

 Al 
  0.2564824  0.9980570  0.7668804

 Al 
  0.2502153  0.2470620  0.4981300

 Al 
  0.9921823  0.4894176  0.5022363

 Al 
  0.9984011  0.7417145  0.7338820

 Al 
  0.2456908  0.4958579  0.7251349

 Al 
  0.2418073  0.7430375  0.4924929

 Al 
  0.5011076  0.4975793  0.0097780

 Al 
  0.5229209  0.7484345  0.2521831

 Al 
  0.7464395  0.4845441  0.2557411

 Al 
  0.7620217  0.7628100  0.0056396

 Al 
  0.4861566  0.9859079  0.5075764

 Al 
  0.5012561  0.2528872  0.7450163

 Al 
  0.7390500  0.9989852  0.7288686

 Al 
  0.7357767  0.2493490  0.5088560

 Al 
  0.5066271  0.5014380  0.4904732

 Al 
  0.4956166  0.7373410  0.7519553

 Al 
  0.7600564  0.5081481  0.7655537

 Al 
  0.7529145  0.7526137  0.4960348

