32 
charge = 0 
 Al 
  0.0006609  0.0023501  0.9816816

 Al 
  0.9975892  0.2538983  0.2562534

 Al 
  0.2459532  0.9926278  0.2622642

 Al 
  0.2531917  0.2559490  0.9951686

 Al 
  0.5231932  0.0110081  0.9874808

 Al 
  0.4904398  0.2419596  0.2606232

 Al 
  0.7494258  0.0159262  0.2554391

 Al 
  0.7626677  0.2595540  0.9988280

 Al 
  0.9921254  0.5084414  0.0180474

 Al 
  0.9951723  0.7653260  0.2448319

 Al 
  0.2593634  0.4943790  0.2579452

 Al 
  0.2441290  0.7488577  0.0050864

 Al 
  0.9933271  0.9944916  0.4970076

 Al 
  0.9946277  0.2553908  0.7399262

 Al 
  0.2543265  0.0003762  0.7658903

 Al 
  0.2490149  0.2478479  0.5014158

 Al 
  0.9933555  0.4893013  0.5012103

 Al 
  0.9990273  0.7419175  0.7368249

 Al 
  0.2465150  0.4971821  0.7265779

 Al 
  0.2430362  0.7415314  0.4920548

 Al 
  0.5028254  0.4981140  0.0115526

 Al 
  0.5216078  0.7500124  0.2501893

 Al 
  0.7470930  0.4835132  0.2556420

 Al 
  0.7610972  0.7619499  0.0035667

 Al 
  0.4853596  0.9880006  0.5091208

 Al 
  0.4991275  0.2530456  0.7477910

 Al 
  0.7415413  0.9981573  0.7290617

 Al 
  0.7373954  0.2477489  0.5082422

 Al 
  0.5080256  0.5032882  0.4899423

 Al 
  0.4971276  0.7346617  0.7532548

 Al 
  0.7603893  0.5098139  0.7621888

 Al 
  0.7512660  0.7533761  0.4948938

