32 
charge = 0 
 Al 
  0.0009368  0.0024046  0.9816469

 Al 
  0.9970323  0.2540604  0.2564885

 Al 
  0.2457180  0.9925635  0.2624536

 Al 
  0.2533785  0.2564601  0.9951512

 Al 
  0.5235347  0.0105861  0.9872407

 Al 
  0.4903433  0.2421551  0.2608002

 Al 
  0.7496238  0.0162541  0.2555282

 Al 
  0.7628298  0.2593337  0.9984382

 Al 
  0.9919781  0.5087558  0.0182751

 Al 
  0.9952329  0.7660314  0.2450002

 Al 
  0.2598559  0.4944755  0.2569650

 Al 
  0.2443245  0.7485112  0.0057633

 Al 
  0.9935572  0.9938246  0.4972093

 Al 
  0.9941983  0.2557658  0.7402109

 Al 
  0.2547708  0.9999084  0.7661378

 Al 
  0.2492698  0.2477043  0.5007401

 Al 
  0.9931303  0.4893000  0.5014479

 Al 
  0.9988899  0.7418507  0.7361987

 Al 
  0.2463356  0.4969135  0.7262301

 Al 
  0.2427726  0.7418308  0.4921341

 Al 
  0.5024652  0.4980013  0.0112111

 Al 
  0.5219197  0.7496758  0.2506076

 Al 
  0.7469519  0.4836926  0.2556680

 Al 
  0.7613163  0.7621405  0.0040122

 Al 
  0.4855069  0.9875674  0.5088275

 Al 
  0.4995631  0.2529961  0.7472192

 Al 
  0.7410017  0.9983367  0.7289812

 Al 
  0.7370365  0.2480620  0.5083894

 Al 
  0.5077546  0.5029145  0.4900079

 Al 
  0.4968120  0.7351926  0.7529900

 Al 
  0.7603534  0.5094909  0.7629053

 Al 
  0.7516039  0.7532437  0.4951178

