32 
charge = 0 
 Al 
  0.9972452  0.0022548  0.9829947

 Al 
  0.0041211  0.2515148  0.2534379

 Al 
  0.2487043  0.9938023  0.2591357

 Al 
  0.2507363  0.2504987  0.9959655

 Al 
  0.5185090  0.0149918  0.9909163

 Al 
  0.4918469  0.2399745  0.2583164

 Al 
  0.7473887  0.0119474  0.2543377

 Al 
  0.7604314  0.2613670  0.0026905

 Al 
  0.9947663  0.5046817  0.0146119

 Al 
  0.9944619  0.7568573  0.2437812

 Al 
  0.2533674  0.4936488  0.2680746

 Al 
  0.2428865  0.7523687  0.9976610

 Al 
  0.9914633  0.0022511  0.4952131

 Al 
  0.9991745  0.2508477  0.7375439

 Al 
  0.2494654  0.0051619  0.7619351

 Al 
  0.2462081  0.2489109  0.5086097

 Al 
  0.9954012  0.4901391  0.4980026

 Al 
  0.0007945  0.7433691  0.7439273

 Al 
  0.2486993  0.5000161  0.7318759

 Al 
  0.2461240  0.7387790  0.4915487

 Al 
  0.5067175  0.4993552  0.0147567

 Al 
  0.5169831  0.7540072  0.2453802

 Al 
  0.7488924  0.4824761  0.2553017

 Al 
  0.7579402  0.7594785  0.9981746

 Al 
  0.4842322  0.9928407  0.5117680

 Al 
  0.4946921  0.2541099  0.7539045

 Al 
  0.7480149  0.9960287  0.7311321

 Al 
  0.7418395  0.2447713  0.5061470

 Al 
  0.5105453  0.5070467  0.4904052

 Al 
  0.5006015  0.7296681  0.7559960

 Al 
  0.7599809  0.5126021  0.7537065

 Al 
  0.7477650  0.7542300  0.4927442

