32 
charge = 0 
 Al 
  0.9994406  0.0022115  0.9819873

 Al 
  0.0000037  0.2531162  0.2552262

 Al 
  0.2469766  0.9929904  0.2612767

 Al 
  0.2523365  0.2538241  0.9953393

 Al 
  0.5215979  0.0126714  0.9886379

 Al 
  0.4909163  0.2411576  0.2598027

 Al 
  0.7486115  0.0144844  0.2550480

 Al 
  0.7619016  0.2603720  0.0003973

 Al 
  0.9929236  0.5070714  0.0169336

 Al 
  0.9949025  0.7622345  0.2442688

 Al 
  0.2571853  0.4940424  0.2619586

 Al 
  0.2434719  0.7502587  0.0022437

 Al 
  0.9924793  0.9973850  0.4962527

 Al 
  0.9964111  0.2537325  0.7388520

 Al 
  0.2524677  0.0022845  0.7646367

 Al 
  0.2479283  0.2483615  0.5042151

 Al 
  0.9942231  0.4894473  0.5000941

 Al 
  0.9996498  0.7423271  0.7395092

 Al 
  0.2473108  0.4982835  0.7282956

 Al 
  0.2441797  0.7403544  0.4917776

 Al 
  0.5043377  0.4985929  0.0128768

 Al 
  0.5200918  0.7514789  0.2483949

 Al 
  0.7477254  0.4829254  0.2555195

 Al 
  0.7600428  0.7610873  0.0016051

 Al 
  0.4848238  0.9898297  0.5102346

 Al 
  0.4973479  0.2533451  0.7501671

 Al 
  0.7439124  0.9973677  0.7296099

 Al 
  0.7390018  0.2465224  0.5075330

 Al 
  0.5090775  0.5048017  0.4898842

 Al 
  0.4984555  0.7325726  0.7543377

 Al 
  0.7603831  0.5110490  0.7590750

 Al 
  0.7498812  0.7538166  0.4940090

