32 
charge = 0 
 Al 
  0.9980211  0.0022053  0.9825825

 Al 
  0.0026979  0.2521039  0.2540642

 Al 
  0.2481127  0.9935040  0.2599314

 Al 
  0.2513081  0.2516088  0.9957019

 Al 
  0.5196240  0.0142555  0.9900970

 Al 
  0.4915140  0.2403544  0.2588350

 Al 
  0.7477872  0.0128348  0.2545926

 Al 
  0.7609586  0.2610737  0.0019479

 Al 
  0.9940684  0.5055171  0.0154720

 Al 
  0.9946092  0.7587322  0.2438939

 Al 
  0.2546965  0.4937676  0.2660549

 Al 
  0.2430251  0.7516707  0.9992154

 Al 
  0.9917603  0.0005854  0.4955497

 Al 
  0.9982587  0.2518489  0.7379263

 Al 
  0.2504851  0.0042151  0.7629400

 Al 
  0.2467786  0.2487600  0.5071383

 Al 
  0.9950287  0.4898421  0.4987426

 Al 
  0.0003874  0.7429669  0.7424261

 Al 
  0.2482179  0.4994332  0.7305529

 Al 
  0.2454544  0.7392629  0.4915932

 Al 
  0.5059254  0.4991003  0.0141478

 Al 
  0.5181266  0.7531286  0.2464185

 Al 
  0.7484741  0.4825627  0.2553747

 Al 
  0.7587038  0.7600540  0.9993713

 Al 
  0.4843956  0.9918086  0.5112754

 Al 
  0.4955572  0.2538129  0.7526533

 Al 
  0.7465942  0.9964878  0.7305331

 Al 
  0.7408519  0.2453381  0.5066445

 Al 
  0.5100762  0.5063153  0.4901527

 Al 
  0.4998762  0.7305851  0.7554465

 Al 
  0.7601616  0.5121393  0.7555727

 Al 
  0.7484654  0.7541223  0.4931526

