32 
charge = 0 
 Al 
  0.9947713  0.0026038  0.9846666

 Al 
  0.0084154  0.2494901  0.2514640

 Al 
  0.2504369  0.9947899  0.2563895

 Al 
  0.2488874  0.2473652  0.9970657

 Al 
  0.5148235  0.0168197  0.9935548

 Al 
  0.4929038  0.2390253  0.2567583

 Al 
  0.7463343  0.0091926  0.2534751

 Al 
  0.7587087  0.2619289  0.0046248

 Al 
  0.9972637  0.5020692  0.0116059

 Al 
  0.9940770  0.7510321  0.2437392

 Al 
  0.2493169  0.4933407  0.2735917

 Al 
  0.2428333  0.7543265  0.9931154

 Al 
  0.9908841  0.0071358  0.4942577

 Al 
  0.0016818  0.2478429  0.7368633

 Al 
  0.2464445  0.0077137  0.7584662

 Al 
  0.2446909  0.2491535  0.5127828

 Al 
  0.9963331  0.4914113  0.4957341

 Al 
  0.0021113  0.7448183  0.7482786

 Al 
  0.2501361  0.5017115  0.7364450

 Al 
  0.2481387  0.7377419  0.4916613

 Al 
  0.5088981  0.5000681  0.0163952

 Al 
  0.5130872  0.7566965  0.2422504

 Al 
  0.7502884  0.4826457  0.2551037

 Al 
  0.7554106  0.7575949  0.9944867

 Al 
  0.4840070  0.9959556  0.5131132

 Al 
  0.4924335  0.2552250  0.7574774

 Al 
  0.7522969  0.9946909  0.7333907

 Al 
  0.7448357  0.2432578  0.5045518

 Al 
  0.5117606  0.5089773  0.4915499

 Al 
  0.5026905  0.7274665  0.7575207

 Al 
  0.7592570  0.5135117  0.7479679

 Al 
  0.7458418  0.7543983  0.4916514

