32 
charge = 0 
 Al 
  0.9960237  0.0023922  0.9837545

 Al 
  0.0062868  0.2505421  0.2524615

 Al 
  0.2495891  0.9942862  0.2578152

 Al 
  0.2498292  0.2488788  0.9964606

 Al 
  0.5167120  0.0159893  0.9922194

 Al 
  0.4923704  0.2394560  0.2575269

 Al 
  0.7468281  0.0105737  0.2539255

 Al 
  0.7595886  0.2617135  0.0037251

 Al 
  0.9959507  0.5033823  0.0131788

 Al 
  0.9942552  0.7539565  0.2437082

 Al 
  0.2513304  0.4934855  0.2709693

 Al 
  0.2427924  0.7533810  0.9953443

 Al 
  0.9911094  0.0047461  0.4947243

 Al 
  0.0004925  0.2493255  0.7371071

 Al 
  0.2479333  0.0065096  0.7602693

 Al 
  0.2454000  0.2490718  0.5107656

 Al 
  0.9959074  0.4907084  0.4968603

 Al 
  0.0014405  0.7440560  0.7461586

 Al 
  0.2494295  0.5008824  0.7340651

 Al 
  0.2471412  0.7381701  0.4915549

 Al 
  0.5078598  0.4997253  0.0156193

 Al 
  0.5151057  0.7553562  0.2438023

 Al 
  0.7495681  0.4824786  0.2551953

 Al 
  0.7567064  0.7585602  0.9963294

 Al 
  0.4840664  0.9944075  0.5124684

 Al 
  0.4934842  0.2546297  0.7557435

 Al 
  0.7501782  0.9953431  0.7321853

 Al 
  0.7433493  0.2439718  0.5053586

 Al 
  0.5111938  0.5080739  0.4909138

 Al 
  0.5016744  0.7284466  0.7567893

 Al 
  0.7596443  0.5131578  0.7508341

 Al 
  0.7467601  0.7543401  0.4921687

