32 
charge = 0 
 Al 
  0.9956067  0.0024553  0.9840416

 Al 
  0.0070046  0.2501992  0.2521298

 Al 
  0.2498775  0.9944520  0.2573499

 Al 
  0.2495174  0.2483602  0.9966512

 Al 
  0.5160908  0.0162863  0.9926637

 Al 
  0.4925486  0.2393025  0.2572670

 Al 
  0.7466549  0.0101121  0.2537795

 Al 
  0.7592978  0.2618014  0.0040419

 Al 
  0.9963764  0.5029442  0.0126677

 Al 
  0.9941921  0.7529801  0.2437070

 Al 
  0.2506522  0.4934360  0.2718789

 Al 
  0.2427912  0.7537053  0.9945869

 Al 
  0.9910202  0.0055604  0.4945671

 Al 
  0.0009059  0.2488231  0.7370031

 Al 
  0.2474296  0.0069291  0.7596802

 Al 
  0.2451500  0.2491077  0.5114574

 Al 
  0.9960596  0.4909287  0.4964791

 Al 
  0.0016633  0.7443035  0.7468813

 Al 
  0.2496696  0.5011645  0.7348411

 Al 
  0.2474778  0.7380055  0.4915784

 Al 
  0.5082199  0.4998441  0.0158878

 Al 
  0.5144448  0.7558066  0.2432788

 Al 
  0.7498045  0.4825157  0.2551619

 Al 
  0.7562782  0.7582422  0.9957106

 Al 
  0.4840342  0.9949272  0.5126900

 Al 
  0.4931142  0.2548203  0.7563363

 Al 
  0.7508935  0.9951203  0.7325726

 Al 
  0.7438506  0.2437231  0.5050901

 Al 
  0.5113930  0.5083907  0.4911143

 Al 
  0.5020209  0.7280902  0.7570417

 Al 
  0.7595193  0.5132988  0.7498738

 Al 
  0.7464420  0.7543649  0.4919893

