32 
charge = 0 
 Al 
  0.9900611  0.0039466  0.9896329

 Al 
  0.0154893  0.2449173  0.2476523

 Al 
  0.2529033  0.9966994  0.2504455

 Al 
  0.2452267  0.2429125  0.0002512

 Al 
  0.5071432  0.0181823  0.9983837

 Al 
  0.4948691  0.2384696  0.2544057

 Al 
  0.7452577  0.0040951  0.2513353

 Al 
  0.7551940  0.2613559  0.0065232

 Al 
  0.0031607  0.4972130  0.0044367

 Al 
  0.9938134  0.7403520  0.2445782

 Al 
  0.2427491  0.4928098  0.2801000

 Al 
  0.2441934  0.7572694  0.9860663

 Al 
  0.9914324  0.0141503  0.4924521

 Al 
  0.0044057  0.2433889  0.7381590

 Al 
  0.2414385  0.0103336  0.7509269

 Al 
  0.2434285  0.2489741  0.5184236

 Al 
  0.9970125  0.4951191  0.4923543

 Al 
  0.0047176  0.7481065  0.7545988

 Al 
  0.2522375  0.5043476  0.7469086

 Al 
  0.2514517  0.7382964  0.4931786

 Al 
  0.5114561  0.5009702  0.0184607

 Al 
  0.5045592  0.7612717  0.2370068

 Al 
  0.7533884  0.4849030  0.2549861

 Al 
  0.7503539  0.7535184  0.9881565

 Al 
  0.4849228  0.0014913  0.5150599

 Al 
  0.4903767  0.2580726  0.7628471

 Al 
  0.7591666  0.9928234  0.7390265

 Al 
  0.7496857  0.2415573  0.5015197

 Al 
  0.5130365  0.5108386  0.4946661

 Al 
  0.5056557  0.7265457  0.7595416

 Al 
  0.7577979  0.5126380  0.7378038

 Al 
  0.7434137  0.7544268  0.4901156

