32 
charge = 0 
 Al 
  0.9907938  0.0036879  0.9886553

 Al 
  0.0145005  0.2457057  0.2482600

 Al 
  0.2526137  0.9964074  0.2514306

 Al 
  0.2458096  0.2434780  0.9996547

 Al 
  0.5084241  0.0181699  0.9976672

 Al 
  0.4945659  0.2384201  0.2546978

 Al 
  0.7453332  0.0048970  0.2517363

 Al 
  0.7557732  0.2616096  0.0063945

 Al 
  0.0021286  0.4979729  0.0057225

 Al 
  0.9937998  0.7419868  0.2443877

 Al 
  0.2436290  0.4929038  0.2794787

 Al 
  0.2438468  0.7568561  0.9870130

 Al 
  0.9911749  0.0133149  0.4927689

 Al 
  0.0042028  0.2439236  0.7376764

 Al 
  0.2421625  0.0101691  0.7521806

 Al 
  0.2434446  0.2490260  0.5177813

 Al 
  0.9970175  0.4944248  0.4927466

 Al 
  0.0043005  0.7475521  0.7538067

 Al 
  0.2519826  0.5039887  0.7450819

 Al 
  0.2509839  0.7379350  0.4927986

 Al 
  0.5112222  0.5008762  0.0182256

 Al 
  0.5060096  0.7606170  0.2377593

 Al 
  0.7528538  0.4843597  0.2549775

 Al 
  0.7511546  0.7542275  0.9890612

 Al 
  0.4846369  0.0006373  0.5148025

 Al 
  0.4904732  0.2575553  0.7621182

 Al 
  0.7582310  0.9930375  0.7380241

 Al 
  0.7490223  0.2417046  0.5019999

 Al 
  0.5129400  0.5107371  0.4941228

 Al 
  0.5052968  0.7263551  0.7593114

 Al 
  0.7579984  0.5130439  0.7393285

 Al 
  0.7436761  0.7544206  0.4903297

