32 
charge = 0 
 Al 
  0.9893458  0.0042139  0.9906861

 Al 
  0.0164051  0.2441142  0.2470521

 Al 
  0.2531446  0.9969816  0.2494604

 Al 
  0.2446537  0.2424063  0.0008700

 Al 
  0.5058475  0.0181142  0.9990632

 Al 
  0.4951661  0.2385798  0.2541570

 Al 
  0.7452218  0.0032981  0.2509096

 Al 
  0.7546112  0.2610391  0.0065814

 Al 
  0.0042176  0.4964630  0.0030976

 Al 
  0.9938530  0.7387642  0.2447800

 Al 
  0.2419596  0.4927108  0.2805430

 Al 
  0.2445894  0.7576679  0.9852012

 Al 
  0.9917615  0.0148507  0.4921167

 Al 
  0.0045072  0.2429434  0.7387567

 Al 
  0.2407492  0.0103869  0.7496720

 Al 
  0.2434941  0.2489307  0.5189496

 Al 
  0.9969643  0.4958443  0.4920412

 Al 
  0.0051285  0.7486634  0.7552931

 Al 
  0.2524578  0.5046755  0.7487835

 Al 
  0.2518922  0.7387716  0.4936142

 Al 
  0.5116133  0.5010420  0.0186600

 Al 
  0.5030828  0.7618868  0.2362952

 Al 
  0.7539317  0.4855131  0.2550035

 Al 
  0.7495681  0.7527845  0.9873076

 Al 
  0.4852668  0.0023328  0.5152938

 Al 
  0.4903767  0.2586097  0.7635253

 Al 
  0.7600243  0.9926526  0.7400562

 Al 
  0.7502933  0.2414608  0.5010420

 Al 
  0.5130847  0.5108559  0.4952119

 Al 
  0.5059638  0.7268749  0.7597310

 Al 
  0.7576234  0.5121256  0.7363324

 Al 
  0.7432021  0.7544428  0.4899089

