32 
charge = 0 
 Al 
  0.9886454  0.0044862  0.9918247

 Al 
  0.0172491  0.2432936  0.2464581

 Al 
  0.2533365  0.9972514  0.2484728

 Al 
  0.2440894  0.2419534  0.0015123

 Al 
  0.5045258  0.0179632  0.9997092

 Al 
  0.4954594  0.2387543  0.2539491

 Al 
  0.7452267  0.0024986  0.2504542

 Al 
  0.7540208  0.2606567  0.0065715

 Al 
  0.0053054  0.4957131  0.0016967

 Al 
  0.9939211  0.7372135  0.2449879

 Al 
  0.2412603  0.4926031  0.2808128

 Al 
  0.2450349  0.7580590  0.9844154

 Al 
  0.9921638  0.0154163  0.4917603

 Al 
  0.0045047  0.2425870  0.7394770

 Al 
  0.2400896  0.0103250  0.7484097

 Al 
  0.2436439  0.2489023  0.5193604

 Al 
  0.9968714  0.4966017  0.4918098

 Al 
  0.0055356  0.7492265  0.7558957

 Al 
  0.2526459  0.5049750  0.7507215

 Al 
  0.2523081  0.7393632  0.4941104

 Al 
  0.5116925  0.5010928  0.0188270

 Al 
  0.5015680  0.7624635  0.2356220

 Al 
  0.7544886  0.4861938  0.2550257

 Al 
  0.7487959  0.7520172  0.9865155

 Al 
  0.4856752  0.0031719  0.5155067

 Al 
  0.4904732  0.2591679  0.7641602

 Al 
  0.7608076  0.9925239  0.7411205

 Al 
  0.7508527  0.2414163  0.5005619

 Al 
  0.5130786  0.5107878  0.4957613

 Al 
  0.5062200  0.7273477  0.7598782

 Al 
  0.7574736  0.5115007  0.7349030

 Al 
  0.7430399  0.7544738  0.4897072

