32 
charge = 0 
 Al 
  0.9862593  0.0054193  0.9966474

 Al 
  0.0196352  0.2402530  0.2444013

 Al 
  0.2535964  0.9981065  0.2449532

 Al 
  0.2421860  0.2407430  0.0039255

 Al 
  0.4995433  0.0167752  0.0016868

 Al 
  0.4965150  0.2399337  0.2535741

 Al 
  0.7455485  0.9995582  0.2485422

 Al 
  0.7518068  0.2587520  0.0060059

 Al 
  0.0094240  0.4930164  0.9961413

 Al 
  0.9944322  0.7319650  0.2457168

 Al 
  0.2395537  0.4921687  0.2803574

 Al 
  0.2470286  0.7594575  0.9822595

 Al 
  0.9942206  0.0163049  0.4902728

 Al 
  0.0036657  0.2420647  0.7430622

 Al 
  0.2379499  0.0091443  0.7438580

 Al 
  0.2448666  0.2490458  0.5199037

 Al 
  0.9962452  0.4995631  0.4917467

 Al 
  0.0069242  0.7512784  0.7573128

 Al 
  0.2530902  0.5058066  0.7581815

 Al 
  0.2536298  0.7424509  0.4963999

 Al 
  0.5112989  0.5010928  0.0191785

 Al 
  0.4957849  0.7641775  0.2335392

 Al 
  0.7565677  0.4891812  0.2550975

 Al 
  0.7461697  0.7489221  0.9841555

 Al 
  0.4877023  0.0062237  0.5160933

 Al 
  0.4916031  0.2613410  0.7661353

 Al 
  0.7630167  0.9924410  0.7452032

 Al 
  0.7524566  0.2416625  0.4987835

 Al 
  0.5125600  0.5098361  0.4977204

 Al 
  0.5067138  0.7302275  0.7600144

 Al 
  0.7571729  0.5083362  0.7301384

 Al 
  0.7428308  0.7547485  0.4889919

