32 
charge = 0 
 Al 
  0.9855972  0.0056544  0.9983008

 Al 
  0.0201290  0.2393421  0.2438308

 Al 
  0.2535407  0.9983206  0.2439335

 Al 
  0.2416774  0.2404955  0.0046446

 Al 
  0.4979914  0.0162405  0.0021571

 Al 
  0.4968380  0.2404572  0.2535753

 Al 
  0.7457267  0.9986535  0.2478850

 Al 
  0.7511175  0.2580343  0.0056953

 Al 
  0.0106876  0.4922120  0.9943456

 Al 
  0.9946748  0.7305109  0.2459024

 Al 
  0.2392988  0.4920301  0.2798092

 Al 
  0.2477278  0.7598906  0.9818214

 Al 
  0.9950101  0.0162269  0.4897740

 Al 
  0.0031818  0.2421316  0.7444136

 Al 
  0.2373793  0.0085181  0.7425115

 Al 
  0.2454260  0.2491931  0.5197973

 Al 
  0.9959977  0.5005025  0.4919719

 Al 
  0.0073029  0.7518922  0.7575170

 Al 
  0.2531743  0.5059737  0.7605317

 Al 
  0.2539788  0.7436426  0.4972291

 Al 
  0.5109735  0.5010420  0.0192169

 Al 
  0.4939607  0.7645661  0.2330305

 Al 
  0.7571952  0.4902158  0.2550950

 Al 
  0.7454495  0.7478850  0.9836097

 Al 
  0.4884832  0.0071568  0.5162158

 Al 
  0.4921662  0.2620279  0.7666390

 Al 
  0.7634931  0.9925387  0.7464841

 Al 
  0.7528229  0.2418445  0.4982290

 Al 
  0.5122395  0.5093473  0.4982885

 Al 
  0.5067348  0.7314316  0.7599228

 Al 
  0.7571531  0.5071296  0.7288389

 Al 
  0.7428716  0.7548933  0.4887827

