32 
charge = 0 
 Al 
  0.9849512  0.0058586  0.0000743

 Al 
  0.0205163  0.2384300  0.2432813

 Al 
  0.2534181  0.9985162  0.2429199

 Al 
  0.2411972  0.2402901  0.0053611

 Al 
  0.4963876  0.0156205  0.0025729

 Al 
  0.4971759  0.2410673  0.2536285

 Al 
  0.7459396  0.9977192  0.2471746

 Al 
  0.7504010  0.2572410  0.0053215

 Al 
  0.0119722  0.4913977  0.9924682

 Al 
  0.9949668  0.7290901  0.2460646

 Al 
  0.2391602  0.4918903  0.2790691

 Al 
  0.2484778  0.7603435  0.9814749

 Al 
  0.9958888  0.0159905  0.4892456

 Al 
  0.0025939  0.2422949  0.7459037

 Al 
  0.2368286  0.0077669  0.7411551

 Al 
  0.2460782  0.2494035  0.5195733

 Al 
  0.9957354  0.5014776  0.4923197

 Al 
  0.0076617  0.7525135  0.7576296

 Al 
  0.2532523  0.5061037  0.7629659

 Al 
  0.2543166  0.7449668  0.4981338

 Al 
  0.5105453  0.5009665  0.0192305

 Al 
  0.4920635  0.7648953  0.2325702

 Al 
  0.7578301  0.4913222  0.2550703

 Al 
  0.7447564  0.7467724  0.9831333

 Al 
  0.4893619  0.0081221  0.5163148

 Al 
  0.4928358  0.2627382  0.7671143

 Al 
  0.7638929  0.9926959  0.7478095

 Al 
  0.7531496  0.2420722  0.4976523

 Al 
  0.5118286  0.5087607  0.4988528

 Al 
  0.5067002  0.7328078  0.7597631

 Al 
  0.7571605  0.5057906  0.7275803

 Al 
  0.7429546  0.7550740  0.4885736

