32 
charge = 0 
 Al 
  0.9837558  0.0061210  0.0039020

 Al 
  0.0209136  0.2366752  0.2423024

 Al 
  0.2529664  0.9988367  0.2409831

 Al 
  0.2403792  0.2400116  0.0067125

 Al 
  0.4931018  0.0141602  0.0031991

 Al 
  0.4978924  0.2425363  0.2538884

 Al 
  0.7464470  0.9957886  0.2456178

 Al 
  0.7489085  0.2554601  0.0044181

 Al 
  0.0144980  0.4897864  0.9885847

 Al 
  0.9957094  0.7264343  0.2462774

 Al 
  0.2392505  0.4916192  0.2770395

 Al 
  0.2500829  0.7613039  0.9810839

 Al 
  0.9978751  0.0150438  0.4881318

 Al 
  0.0011485  0.2428828  0.7492265

 Al 
  0.2358126  0.0059378  0.7384820

 Al 
  0.2476239  0.2500396  0.5187924

 Al 
  0.9952205  0.5034825  0.4933852

 Al 
  0.0082892  0.7537523  0.7575702

 Al 
  0.2534231  0.5062336  0.7679471

 Al 
  0.2549502  0.7479518  0.5001337

 Al 
  0.5093832  0.5007512  0.0191810

 Al 
  0.4881305  0.7653383  0.2318450

 Al 
  0.7590726  0.4936909  0.2549218

 Al 
  0.7434978  0.7443394  0.9824279

 Al 
  0.4914027  0.0101158  0.5164398

 Al 
  0.4944693  0.2641874  0.7679484

 Al 
  0.7644399  0.9931996  0.7505272

 Al 
  0.7536855  0.2426377  0.4964383

 Al 
  0.5107222  0.5073227  0.4999455

 Al 
  0.5064601  0.7360353  0.7592124

 Al 
  0.7572546  0.5027771  0.7252636

 Al 
  0.7432342  0.7555468  0.4881714

