32 
charge = 0 
 Al 
  0.9832323  0.0061532  0.0058858

 Al 
  0.0208950  0.2358806  0.2419063

 Al 
  0.2526385  0.9989555  0.2401057

 Al 
  0.2400686  0.2399374  0.0073078

 Al 
  0.4914769  0.0133496  0.0033884

 Al 
  0.4982662  0.2433704  0.2540901

 Al 
  0.7467217  0.9948171  0.2447936

 Al 
  0.7481536  0.2545047  0.0039107

 Al 
  0.0156713  0.4890253  0.9866616

 Al 
  0.9961598  0.7252512  0.2463096

 Al 
  0.2394820  0.4914992  0.2757821

 Al 
  0.2508972  0.7618014  0.9810517

 Al 
  0.9989456  0.0143471  0.4875712

 Al 
  0.0003280  0.2432837  0.7509900

 Al 
  0.2353609  0.0049082  0.7372160

 Al 
  0.2484852  0.2504690  0.5182565

 Al 
  0.9950015  0.5044750  0.4940919

 Al 
  0.0085355  0.7543463  0.7574019

 Al 
  0.2535394  0.5062262  0.7703950

 Al 
  0.2552398  0.7495557  0.5011905

 Al 
  0.5086605  0.5006138  0.0191216

 Al 
  0.4861591  0.7654324  0.2316061

 Al 
  0.7596517  0.4949074  0.2547857

 Al 
  0.7429657  0.7430486  0.9822162

 Al 
  0.4925412  0.0111183  0.5164608

 Al 
  0.4954012  0.2648965  0.7682949

 Al 
  0.7645772  0.9935412  0.7518749

 Al 
  0.7538983  0.2429570  0.4958146

 Al 
  0.5100317  0.5064984  0.5004542

 Al 
  0.5062608  0.7378360  0.7588176

 Al 
  0.7573313  0.5011571  0.7242550

 Al 
  0.7434224  0.7558376  0.4879895

