32 
charge = 0 
 Al 
  0.9821110  0.0057361  0.0115910

 Al 
  0.0199000  0.2341270  0.2412616

 Al 
  0.2513131  0.9991077  0.2380922

 Al 
  0.2396775  0.2399473  0.0085627

 Al 
  0.4870712  0.0108386  0.0033860

 Al 
  0.4993973  0.2460670  0.2548983

 Al 
  0.7474902  0.9920412  0.2423370

 Al 
  0.7460051  0.2516224  0.0023477

 Al 
  0.0183778  0.4871529  0.9815616

 Al 
  0.9977674  0.7225769  0.2460299

 Al 
  0.2408173  0.4912566  0.2713603

 Al 
  0.2531224  0.7632518  0.9815987

 Al 
  0.0021769  0.0115749  0.4860168

 Al 
  0.9977439  0.2446735  0.7562027

 Al 
  0.2343287  0.0017388  0.7340144

 Al 
  0.2511782  0.2521323  0.5162764

 Al 
  0.9946958  0.5071865  0.4967266

 Al 
  0.0089005  0.7558784  0.7564353

 Al 
  0.2541619  0.5059168  0.7768910

 Al 
  0.2559712  0.7543624  0.5043018

 Al 
  0.5060975  0.5001324  0.0188407

 Al 
  0.4806866  0.7651490  0.2314935

 Al 
  0.7610477  0.4983602  0.2540815

 Al 
  0.7419051  0.7391070  0.9822026

 Al 
  0.4962106  0.0139622  0.5163631

 Al 
  0.4983924  0.2667615  0.7689694

 Al 
  0.7644386  0.9948579  0.7555777

 Al 
  0.7543723  0.2439149  0.4939694

 Al 
  0.5075281  0.5038501  0.5017264

 Al 
  0.5054255  0.7435672  0.7572039

 Al 
  0.7576023  0.4962700  0.7220930

 Al 
  0.7440894  0.7568771  0.4875897

