32 
charge = 0 
 Al 
  0.9817856  0.0044750  0.0162727

 Al 
  0.0175734  0.2336048  0.2415425

 Al 
  0.2496349  0.9989753  0.2372271

 Al 
  0.2401725  0.2402369  0.0088857

 Al 
  0.4837694  0.0085095  0.0025321

 Al 
  0.5004641  0.2487426  0.2558339

 Al 
  0.7479679  0.9896045  0.2401490

 Al 
  0.7442107  0.2490496  0.0009579

 Al 
  0.0193580  0.4861244  0.9781595

 Al 
  0.9996720  0.7214259  0.2451661

 Al 
  0.2428457  0.4912455  0.2664348

 Al 
  0.2546854  0.7644745  0.9829600

 Al 
  0.0050554  0.0081568  0.4847854

 Al 
  0.9953307  0.2459457  0.7606752

 Al 
  0.2338795  0.9989988  0.7320058

 Al 
  0.2537090  0.2541805  0.5140785

 Al 
  0.9951450  0.5092854  0.4997995

 Al 
  0.0086345  0.7569031  0.7549750

 Al 
  0.2554119  0.5052572  0.7813957

 Al 
  0.2565009  0.7585986  0.5069403

 Al 
  0.5032102  0.4996065  0.0184632

 Al 
  0.4763675  0.7640575  0.2323400

 Al 
  0.7617853  0.5011683  0.2529145

 Al 
  0.7417207  0.7353732  0.9830491

 Al 
  0.4999307  0.0163494  0.5160623

 Al 
  0.5012933  0.2680300  0.7690622

 Al 
  0.7635711  0.9964482  0.7585132

 Al 
  0.7547473  0.2447008  0.4922751

 Al 
  0.5046037  0.5012982  0.5025717

 Al 
  0.5043797  0.7492513  0.7550728

 Al 
  0.7577979  0.4918667  0.7214222

 Al 
  0.7447874  0.7580578  0.4874759

