32 
charge = 0 
 Al 
  0.9824006  0.0059663  0.0097718

 Al 
  0.0203876  0.2345874  0.2413754

 Al 
  0.2518044  0.9990916  0.2386429

 Al 
  0.2397109  0.2399077  0.0082446

 Al 
  0.4884337  0.0116702  0.0034837

 Al 
  0.4990236  0.2451549  0.2546037

 Al 
  0.7472551  0.9929323  0.2431377

 Al 
  0.7466895  0.2525655  0.0028625

 Al 
  0.0176427  0.4876924  0.9831060

 Al 
  0.9971932  0.7233045  0.2461883

 Al 
  0.2402777  0.4913148  0.2729147

 Al 
  0.2524380  0.7627840  0.9813140

 Al 
  0.0011200  0.0125922  0.4865044

 Al 
  0.9986040  0.2442008  0.7545171

 Al 
  0.2346121  0.0027771  0.7349611

 Al 
  0.2502822  0.2515234  0.5169794

 Al 
  0.9947243  0.5063425  0.4957799

 Al 
  0.0088461  0.7554193  0.7568252

 Al 
  0.2538971  0.5060653  0.7749158

 Al 
  0.2557522  0.7527957  0.5032981

 Al 
  0.5070034  0.5003007  0.0189483

 Al 
  0.4824031  0.7653371  0.2314254

 Al 
  0.7606492  0.4972650  0.2543674

 Al 
  0.7421613  0.7404126  0.9821048

 Al 
  0.4949644  0.0130563  0.5164212

 Al 
  0.4973850  0.2661972  0.7688085

 Al 
  0.7645735  0.9943790  0.7544193

 Al 
  0.7542349  0.2436068  0.4945721

 Al 
  0.5084229  0.5047411  0.5013502

 Al 
  0.5057349  0.7416366  0.7578078

 Al 
  0.7575120  0.4978714  0.7226548

 Al 
  0.7438567  0.7565083  0.4876949

