32 
charge = 0 
 Al 
  0.9818029  0.0049911  0.0148532

 Al 
  0.0184855  0.2336308  0.2413470

 Al 
  0.2502228  0.9990471  0.2373831

 Al 
  0.2399102  0.2401144  0.0088807

 Al 
  0.4847359  0.0092520  0.0029070

 Al 
  0.5001188  0.2478677  0.2555195

 Al 
  0.7478528  0.9903792  0.2408383

 Al 
  0.7447639  0.2498577  0.0013898

 Al 
  0.0192441  0.4863658  0.9790765

 Al 
  0.9990075  0.7216400  0.2455163

 Al 
  0.2421130  0.4912220  0.2681130

 Al 
  0.2542523  0.7641008  0.9824303

 Al 
  0.0041520  0.0093473  0.4851567

 Al 
  0.9961004  0.2455584  0.7592929

 Al 
  0.2339612  0.9998366  0.7325343

 Al 
  0.2528984  0.2534664  0.5148173

 Al 
  0.9949000  0.5086580  0.4987451

 Al 
  0.0087941  0.7566210  0.7555034

 Al 
  0.2549106  0.5055084  0.7801396

 Al 
  0.2563437  0.7572744  0.5061296

 Al 
  0.5041953  0.4997834  0.0185956

 Al 
  0.4776632  0.7645055  0.2319514

 Al 
  0.7616158  0.5003168  0.2533550

 Al 
  0.7416873  0.7365836  0.9826816

 Al 
  0.4986993  0.0156094  0.5161811

 Al 
  0.5003552  0.2676811  0.7690956

 Al 
  0.7639325  0.9958987  0.7576234

 Al 
  0.7546211  0.2444656  0.4928221

 Al 
  0.5056123  0.5021199  0.5023340

 Al 
  0.5047423  0.7473826  0.7558314

 Al 
  0.7577496  0.4932602  0.7214779

 Al 
  0.7445572  0.7576543  0.4874783

