32 
charge = 0 
 Al 
  0.9817831  0.0047448  0.0155809

 Al 
  0.0180461  0.2335998  0.2414324

 Al 
  0.2499319  0.9990137  0.2372890

 Al 
  0.2400290  0.2401725  0.0088956

 Al 
  0.4842359  0.0088758  0.0027301

 Al 
  0.5002921  0.2483070  0.2556767

 Al 
  0.7479172  0.9899869  0.2404881

 Al 
  0.7444817  0.2494480  0.0011695

 Al 
  0.0193283  0.4862321  0.9785902

 Al 
  0.9993354  0.7215125  0.2453492

 Al 
  0.2424731  0.4912306  0.2672776

 Al 
  0.2544800  0.7642926  0.9826865

 Al 
  0.0046112  0.0087582  0.4849661

 Al 
  0.9957106  0.2457576  0.7599983

 Al 
  0.2339117  0.9994072  0.7322521

 Al 
  0.2533080  0.2538204  0.5144485

 Al 
  0.9950101  0.5089798  0.4992698

 Al 
  0.0087236  0.7567682  0.7552436

 Al 
  0.2551495  0.5053871  0.7807980

 Al 
  0.2564242  0.7579476  0.5065442

 Al 
  0.5037053  0.4996956  0.0185300

 Al 
  0.4769974  0.7642914  0.2321333

 Al 
  0.7617098  0.5007524  0.2531422

 Al 
  0.7416922  0.7359747  0.9828560

 Al 
  0.4993169  0.0159856  0.5161230

 Al 
  0.5008279  0.2678642  0.7690869

 Al 
  0.7637605  0.9961710  0.7580788

 Al 
  0.7546829  0.2445869  0.4925462

 Al 
  0.5051111  0.5017054  0.5024578

 Al 
  0.5045629  0.7483206  0.7554577

 Al 
  0.7577768  0.4925536  0.7214296

 Al 
  0.7446723  0.7578548  0.4874734

