32 
charge = 0 
 Al 
  0.9818462  0.0052139  0.0140896

 Al 
  0.0188914  0.2337001  0.2412863

 Al 
  0.2505074  0.9990731  0.2375105

 Al 
  0.2398149  0.2400624  0.0088399

 Al 
  0.4852693  0.0096369  0.0030617

 Al 
  0.4999418  0.2474234  0.2553624

 Al 
  0.7477786  0.9907802  0.2411985

 Al 
  0.7450572  0.2502809  0.0016175

 Al 
  0.0191067  0.4865242  0.9796173

 Al 
  0.9986857  0.7218096  0.2456685

 Al 
  0.2417653  0.4912207  0.2689384

 Al 
  0.2540010  0.7639003  0.9821915

 Al 
  0.0036780  0.0099240  0.4853572

 Al 
  0.9964989  0.2453492  0.7585590

 Al 
  0.2340268  0.0002859  0.7328511

 Al 
  0.2524801  0.2531211  0.5151849

 Al 
  0.9948146  0.5083177  0.4982278

 Al 
  0.0088473  0.7564576  0.7557534

 Al 
  0.2546928  0.5056235  0.7794193

 Al 
  0.2562584  0.7565776  0.5056977

 Al 
  0.5046792  0.4998713  0.0186600

 Al 
  0.4783649  0.7646985  0.2317979

 Al 
  0.7615031  0.4998589  0.2535568

 Al 
  0.7417059  0.7372024  0.9825293

 Al 
  0.4980805  0.0152183  0.5162331

 Al 
  0.4998750  0.2674781  0.7690882

 Al 
  0.7640872  0.9956302  0.7571457

 Al 
  0.7545592  0.2443382  0.4931018

 Al 
  0.5061037  0.5025432  0.5021991

 Al 
  0.5049193  0.7464383  0.7561940

 Al 
  0.7577187  0.4939854  0.7215682

 Al 
  0.7444409  0.7574563  0.4874932

