32 
charge = 0 
 Al 
  0.9819997  0.0055864  0.0124573

 Al 
  0.0195993  0.2339476  0.2412430

 Al 
  0.2510532  0.9991040  0.2378645

 Al 
  0.2396985  0.2399782  0.0086815

 Al 
  0.4864376  0.0104302  0.0033006

 Al 
  0.4995817  0.2465212  0.2550505

 Al 
  0.7475954  0.9916106  0.2419484

 Al 
  0.7456772  0.2511633  0.0020977

 Al 
  0.0186723  0.4869190  0.9808611

 Al 
  0.9980657  0.7222774  0.2459259

 Al 
  0.2411168  0.4912381  0.2705633

 Al 
  0.2534355  0.7634758  0.9817744

 Al 
  0.0026905  0.0110391  0.4857866

 Al 
  0.9973219  0.2449050  0.7570133

 Al 
  0.2342112  0.0012388  0.7335912

 Al 
  0.2516200  0.2524528  0.5159163

 Al 
  0.9947119  0.5075813  0.4972167

 Al 
  0.0089005  0.7560863  0.7562200

 Al 
  0.2543191  0.5058289  0.7777944

 Al 
  0.2560727  0.7551210  0.5047832

 Al 
  0.5056321  0.5000458  0.0187825

 Al 
  0.4798772  0.7650215  0.2315690

 Al 
  0.7612185  0.4988800  0.2539194

 Al 
  0.7418135  0.7384634  0.9822880

 Al 
  0.4968343  0.0143941  0.5163247

 Al 
  0.4988924  0.2670190  0.7690250

 Al 
  0.7643409  0.9951092  0.7561235

 Al 
  0.7544354  0.2440622  0.4936748

 Al 
  0.5070628  0.5034095  0.5018959

 Al 
  0.5052609  0.7445300  0.7568796

 Al 
  0.7576444  0.4954916  0.7218764

 Al 
  0.7442070  0.7570665  0.4875489

