32 
charge = 0 
 Al 
  0.9820219  0.0031434  0.0186723

 Al 
  0.0153606  0.2340095  0.2422318

 Al 
  0.2483875  0.9987723  0.2373001

 Al 
  0.2409806  0.2405487  0.0086184

 Al 
  0.4822212  0.0071234  0.0015197

 Al 
  0.5011262  0.2504430  0.2564465

 Al 
  0.7480323  0.9881429  0.2388855

 Al 
  0.7432305  0.2475818  0.0002116

 Al 
  0.0189248  0.4859487  0.9769925

 Al 
  0.0011002  0.7214742  0.2442849

 Al 
  0.2444520  0.4913606  0.2629622

 Al 
  0.2552794  0.7651069  0.9842236

 Al 
  0.0066890  0.0056396  0.4841493

 Al 
  0.9939075  0.2465682  0.7631107

 Al 
  0.2339290  0.9975818  0.7313710

 Al 
  0.2552213  0.2556841  0.5125971

 Al 
  0.9959457  0.5103423  0.5019776

 Al 
  0.0081023  0.7573029  0.7538142

 Al 
  0.2566927  0.5046718  0.7831815

 Al 
  0.2567769  0.7609821  0.5083412

 Al 
  0.5011843  0.4992414  0.0181773

 Al 
  0.4741844  0.7629164  0.2334439

 Al 
  0.7619041  0.5026286  0.2518774

 Al 
  0.7420536  0.7330417  0.9840045

 Al 
  0.5023675  0.0176749  0.5157752

 Al 
  0.5030630  0.2685065  0.7688097

 Al 
  0.7626516  0.9975917  0.7600626

 Al 
  0.7550406  0.2450906  0.4912183

 Al 
  0.5024962  0.4997550  0.5029392

 Al 
  0.5036186  0.7529343  0.7534144

 Al 
  0.7578202  0.4893037  0.7218021

 Al 
  0.7452341  0.7588894  0.4875835

