32 
charge = 0 
 Al 
  0.9830751  0.0003539  0.0212032

 Al 
  0.0110663  0.2357953  0.2439842

 Al 
  0.2463690  0.9983837  0.2383607

 Al 
  0.2428766  0.2411725  0.0075863

 Al 
  0.4807906  0.0052596  0.9993726

 Al 
  0.5020692  0.2528934  0.2572670

 Al 
  0.7476264  0.9860700  0.2372543

 Al 
  0.7420177  0.2457106  0.9994369

 Al 
  0.0166192  0.4864747  0.9768836

 Al 
  0.0035543  0.7226598  0.2425301

 Al 
  0.2471573  0.4916823  0.2573412

 Al 
  0.2554490  0.7657406  0.9865861

 Al 
  0.0087162  0.0014950  0.4834315

 Al 
  0.9921031  0.2470348  0.7659757

 Al 
  0.2345614  0.9961895  0.7314774

 Al 
  0.2572175  0.2581234  0.5103312

 Al 
  0.9980026  0.5114970  0.5054106

 Al 
  0.0067348  0.7575330  0.7518440

 Al 
  0.2593547  0.5036013  0.7841208

 Al 
  0.2571506  0.7639152  0.5098795

 Al 
  0.4979815  0.4986511  0.0176860

 Al 
  0.4718554  0.7605997  0.2359784

 Al 
  0.7615576  0.5042770  0.2499307

 Al 
  0.7431823  0.7296817  0.9859302

 Al 
  0.5060121  0.0193332  0.5152035

 Al 
  0.5054428  0.2686550  0.7679434

 Al 
  0.7607792  0.9993763  0.7619128

 Al 
  0.7556841  0.2454854  0.4896478

 Al 
  0.4990904  0.4977093  0.5032894

 Al 
  0.5024170  0.7584686  0.7505569

 Al 
  0.7576110  0.4859797  0.7235867

 Al 
  0.7458752  0.7601988  0.4880550

