32 
charge = 0 
 Al 
  0.9822769  0.0023229  0.0196574

 Al 
  0.0140599  0.2344438  0.2427207

 Al 
  0.2477315  0.9986486  0.2375266

 Al 
  0.2415215  0.2407368  0.0083548

 Al 
  0.4816296  0.0064762  0.0008861

 Al 
  0.5014467  0.2512710  0.2567361

 Al 
  0.7479716  0.9874412  0.2383075

 Al 
  0.7427961  0.2469172  0.9999035

 Al 
  0.0183766  0.4860168  0.9767388

 Al 
  0.0018737  0.7217254  0.2437565

 Al 
  0.2453171  0.4914497  0.2611517

 Al 
  0.2554341  0.7653631  0.9849512

 Al 
  0.0074204  0.0043092  0.4838807

 Al 
  0.9932590  0.2467922  0.7641689

 Al 
  0.2340627  0.9970138  0.7312633

 Al 
  0.2559242  0.2564737  0.5118497

 Al 
  0.9965113  0.5107816  0.5031001

 Al 
  0.0077261  0.7574279  0.7531855

 Al 
  0.2574811  0.5043401  0.7837236

 Al 
  0.2569031  0.7620440  0.5089303

 Al 
  0.5001386  0.4990508  0.0180239

 Al 
  0.4732860  0.7622246  0.2341654

 Al 
  0.7618571  0.5032461  0.2512796

 Al 
  0.7423469  0.7319081  0.9845849

 Al 
  0.5035803  0.0182677  0.5156057

 Al 
  0.5038934  0.2686327  0.7685882

 Al 
  0.7620947  0.9981783  0.7607371

 Al 
  0.7552213  0.2452453  0.4906972

 Al 
  0.5013947  0.4990347  0.5030791

 Al 
  0.5032239  0.7547683  0.7525123

 Al 
  0.7577867  0.4881281  0.7222353

 Al 
  0.7454520  0.7593176  0.4876974

