32 
charge = 0 
 Al 
  0.9833362  0.9997933  0.0215002

 Al 
  0.0102359  0.2362358  0.2443580

 Al 
  0.2460200  0.9983182  0.2386491

 Al 
  0.2432689  0.2412925  0.0073474

 Al 
  0.4806507  0.0049688  0.9989444

 Al 
  0.5022227  0.2532907  0.2573870

 Al 
  0.7474890  0.9857309  0.2370118

 Al 
  0.7418420  0.2454334  0.9993552

 Al 
  0.0160438  0.4866578  0.9770544

 Al 
  0.0040048  0.7229815  0.2421897

 Al 
  0.2476375  0.4917504  0.2563450

 Al 
  0.2553883  0.7658049  0.9870316

 Al 
  0.0090045  0.0007599  0.4833375

 Al 
  0.9918482  0.2470484  0.7663631

 Al 
  0.2347359  0.9960547  0.7316234

 Al 
  0.2575157  0.2585478  0.5099438

 Al 
  0.9984543  0.5116430  0.5060009

 Al 
  0.0064353  0.7575306  0.7514925

 Al 
  0.2598819  0.5034021  0.7840788

 Al 
  0.2572138  0.7643285  0.5100663

 Al 
  0.4974296  0.4985459  0.0175932

 Al 
  0.4715744  0.7601443  0.2365118

 Al 
  0.7614413  0.5044936  0.2495631

 Al 
  0.7434409  0.7291322  0.9863014

 Al 
  0.5066222  0.0195758  0.5150871

 Al 
  0.5058042  0.2686105  0.7677380

 Al 
  0.7604079  0.9996782  0.7621739

 Al 
  0.7558252  0.2455324  0.4893817

 Al 
  0.4984939  0.4974048  0.5033290

 Al 
  0.5022128  0.7594030  0.7500359

 Al 
  0.7575417  0.4854859  0.7240260

 Al 
  0.7459792  0.7604228  0.4881739

