32 
charge = 0 
 Al 
  0.9842669  0.9979469  0.0221722

 Al 
  0.0075590  0.2378026  0.2456104

 Al 
  0.2449705  0.9981362  0.2397022

 Al 
  0.2445671  0.2416749  0.0065244

 Al 
  0.4803995  0.0041322  0.9975595

 Al 
  0.5026731  0.2544577  0.2577051

 Al 
  0.7469445  0.9847149  0.2363361

 Al 
  0.7413544  0.2446649  0.9992067

 Al 
  0.0140043  0.4873694  0.9778798

 Al 
  0.0054242  0.7241399  0.2411007

 Al 
  0.2491077  0.4919756  0.2532523

 Al 
  0.2550468  0.7659113  0.9884461

 Al 
  0.0097743  0.9984877  0.4830986

 Al 
  0.9911799  0.2469729  0.7673717

 Al 
  0.2353770  0.9958393  0.7322880

 Al 
  0.2583337  0.2598374  0.5087681

 Al 
  1.0000000  0.5120019  0.5077892

 Al 
  0.0054094  0.7574588  0.7504096

 Al 
  0.2615823  0.5027746  0.7836171

 Al 
  0.2574080  0.7654287  0.5104958

 Al 
  0.4957576  0.4982216  0.0172925

 Al 
  0.4709198  0.7586679  0.2383038

 Al 
  0.7609945  0.5050455  0.2484023

 Al 
  0.7443283  0.7275024  0.9874895

 Al 
  0.5084501  0.0202465  0.5146961

 Al 
  0.5068165  0.2683493  0.7670128

 Al 
  0.7591926  0.0005767  0.7628806

 Al 
  0.7563239  0.2456425  0.4885723

 Al 
  0.4966734  0.4965707  0.5034268

 Al 
  0.5016088  0.7622284  0.7484023

 Al 
  0.7572682  0.4841245  0.7255854

 Al 
  0.7462836  0.7610947  0.4886033

