32 
charge = 0 
 Al 
  0.9850082  0.9965955  0.0224333

 Al 
  0.0056383  0.2390426  0.2465423

 Al 
  0.2442800  0.9980360  0.2405537

 Al 
  0.2455188  0.2419459  0.0058982

 Al 
  0.4803735  0.0036025  0.9965658

 Al 
  0.5029652  0.2552052  0.2578771

 Al 
  0.7464655  0.9840453  0.2359326

 Al 
  0.7410648  0.2442082  0.9991943

 Al 
  0.0124066  0.4879734  0.9786768

 Al 
  0.0064217  0.7250644  0.2403322

 Al 
  0.2500953  0.4921390  0.2511200

 Al 
  0.2546854  0.7659039  0.9894436

 Al 
  0.0102012  0.9969333  0.4829773

 Al 
  0.9908284  0.2468232  0.7679100

 Al 
  0.2358992  0.9958665  0.7329179

 Al 
  0.2588053  0.2606963  0.5079773

 Al 
  0.0011819  0.5121739  0.5089847

 Al 
  0.0046211  0.7573573  0.7496720

 Al 
  0.2627890  0.5023353  0.7830355

 Al 
  0.2575442  0.7660351  0.5106653

 Al 
  0.4946463  0.4980001  0.0170697

 Al 
  0.4706487  0.7576048  0.2396503

 Al 
  0.7606195  0.5053314  0.2475942

 Al 
  0.7450052  0.7264442  0.9883273

 Al 
  0.5096555  0.0206450  0.5143929

 Al 
  0.5074217  0.2680659  0.7664373

 Al 
  0.7583065  0.0011621  0.7632852

 Al 
  0.7567200  0.2456982  0.4880303

 Al 
  0.4954520  0.4960955  0.5034738

 Al 
  0.5012190  0.7641107  0.7472650

 Al 
  0.7570306  0.4833276  0.7268130

 Al 
  0.7464804  0.7615341  0.4889510

