32 
charge = 0 
 Al 
  0.9858373  0.9951686  0.0225410

 Al 
  0.0036397  0.2404200  0.2475323

 Al 
  0.2436142  0.9979617  0.2415116

 Al 
  0.2465187  0.2422244  0.0052213

 Al 
  0.4804589  0.0030989  0.9955373

 Al 
  0.5032474  0.2559143  0.2580095

 Al 
  0.7458987  0.9833857  0.2355713

 Al 
  0.7408074  0.2438035  0.9992587

 Al 
  0.0106529  0.4886689  0.9796495

 Al 
  0.0074452  0.7260928  0.2395488

 Al 
  0.2510693  0.4923085  0.2489555

 Al 
  0.2542226  0.7658297  0.9904683

 Al 
  0.0105515  0.9953690  0.4828882

 Al 
  0.9905648  0.2465942  0.7683370

 Al 
  0.2364920  0.9960373  0.7336914

 Al 
  0.2592050  0.2615366  0.5071878

 Al 
  0.0024702  0.5122890  0.5101653

 Al 
  0.0037585  0.7572187  0.7489357

 Al 
  0.2640228  0.5018885  0.7822472

 Al 
  0.2576840  0.7665301  0.5107371

 Al 
  0.4935585  0.4977773  0.0168271

 Al 
  0.4705151  0.7564972  0.2411007

 Al 
  0.7601876  0.5055480  0.2467774

 Al 
  0.7457329  0.7254257  0.9891849

 Al 
  0.5108299  0.0209990  0.5140562

 Al 
  0.5079600  0.2676922  0.7657938

 Al 
  0.7573709  0.0017239  0.7636355

 Al 
  0.7571667  0.2457415  0.4874920

 Al 
  0.4942453  0.4956995  0.5035073

 Al 
  0.5008502  0.7659658  0.7461079

 Al 
  0.7567521  0.4826333  0.7281731

 Al 
  0.7466710  0.7619561  0.4893471

