32 
charge = 0 
 Al 
  0.9846270  0.9972823  0.0223219

 Al 
  0.0066111  0.2384040  0.2460670

 Al 
  0.2446228  0.9980830  0.2401144

 Al 
  0.2450361  0.2418086  0.0062188

 Al 
  0.4803723  0.0038649  0.9970682

 Al 
  0.5028204  0.2548352  0.2577954

 Al 
  0.7467167  0.9843795  0.2361294

 Al 
  0.7412059  0.2444310  0.9991906

 Al 
  0.0132271  0.4876590  0.9782548

 Al 
  0.0059193  0.7245879  0.2407195

 Al 
  0.2496027  0.4920561  0.2521917

 Al 
  0.2548785  0.7659151  0.9889399

 Al 
  0.0099970  0.9977130  0.4830343

 Al 
  0.9909930  0.2469086  0.7676538

 Al 
  0.2356294  0.9958356  0.7325838

 Al 
  0.2585775  0.2602681  0.5083733

 Al 
  0.0005767  0.5120947  0.5083882

 Al 
  0.0050257  0.7574130  0.7500408

 Al 
  0.2621801  0.5025556  0.7833535

 Al 
  0.2574749  0.7657455  0.5105923

 Al 
  0.4952007  0.4981115  0.0171823

 Al 
  0.4707675  0.7581432  0.2389622

 Al 
  0.7608151  0.5051965  0.2480013

 Al 
  0.7446587  0.7269702  0.9879053

 Al 
  0.5090552  0.0204507  0.5145488

 Al 
  0.5071271  0.2682182  0.7667331

 Al 
  0.7587570  0.0008712  0.7630897

 Al 
  0.7565145  0.2456722  0.4883013

 Al 
  0.4960621  0.4963232  0.5034516

 Al 
  0.5014121  0.7631714  0.7478380

 Al 
  0.7571543  0.4837137  0.7261806

 Al 
  0.7463826  0.7613163  0.4887716

