32 
charge = 0 
 Al 
  0.9906812  0.9879647  0.0209965

 Al 
  0.9938221  0.2483516  0.2525444

 Al 
  0.2411873  0.9981932  0.2471289

 Al 
  0.2514405  0.2435214  0.0016336

 Al 
  0.4823103  0.0010222  0.9907591

 Al 
  0.5044144  0.2585367  0.2579588

 Al 
  0.7421130  0.9805455  0.2344253

 Al 
  0.7400327  0.2426514  0.0007562

 Al 
  0.0010544  0.4927875  0.9860935

 Al 
  0.0123150  0.7319403  0.2361641

 Al 
  0.2549317  0.4930659  0.2388607

 Al 
  0.2508923  0.7644461  0.9953492

 Al 
  0.0109784  0.9883112  0.4829860

 Al 
  0.9907802  0.2445881  0.7688122

 Al 
  0.2399943  0.9988342  0.7390327

 Al 
  0.2598213  0.2648371  0.5036397

 Al 
  0.0096258  0.5120068  0.5151688

 Al 
  0.9988503  0.7561928  0.7457663

 Al 
  0.2694446  0.4998540  0.7759863

 Al 
  0.2583857  0.7672628  0.5097173

 Al 
  0.4893260  0.4968591  0.0153086

 Al 
  0.4718900  0.7510470  0.2489530

 Al 
  0.7574514  0.5056161  0.2433048

 Al 
  0.7494926  0.7215769  0.9931031

 Al 
  0.5155747  0.0220187  0.5118633

 Al 
  0.5093906  0.2646899  0.7619041

 Al 
  0.7525506  0.0038179  0.7645302

 Al 
  0.7599141  0.2459940  0.4852705

 Al 
  0.4893161  0.4952440  0.5034862

 Al 
  0.4995817  0.7737798  0.7407331

 Al 
  0.7549428  0.4810492  0.7359673

 Al 
  0.7474964  0.7633917  0.4917962

