32 
charge = 0 
 Al 
  0.9911725  0.9873274  0.0206834

 Al 
  0.9929632  0.2491461  0.2529850

 Al 
  0.2410636  0.9982835  0.2476981

 Al 
  0.2518638  0.2436278  0.0012994

 Al 
  0.4825924  0.0008552  0.9903804

 Al 
  0.5044998  0.2586926  0.2578870

 Al 
  0.7416935  0.9803228  0.2343646

 Al 
  0.7400030  0.2426155  0.0010000

 Al 
  0.0001436  0.4931897  0.9867878

 Al 
  0.0127246  0.7325194  0.2359314

 Al 
  0.2551730  0.4931216  0.2380093

 Al 
  0.2505235  0.7642258  0.9957638

 Al 
  0.0108980  0.9877407  0.4830491

 Al 
  0.9909373  0.2443419  0.7687231

 Al 
  0.2403495  0.9992488  0.7396317

 Al 
  0.2597470  0.2650463  0.5033439

 Al 
  0.0103312  0.5119041  0.5155463

 Al 
  0.9983540  0.7560826  0.7455274

 Al 
  0.2698406  0.4996956  0.7752277

 Al 
  0.2584501  0.7671885  0.5095181

 Al 
  0.4890698  0.4968021  0.0151255

 Al 
  0.4721957  0.7505668  0.2497104

 Al 
  0.7571494  0.5055443  0.2430647

 Al 
  0.7498218  0.7213504  0.9934174

 Al 
  0.5159002  0.0220509  0.5116021

 Al 
  0.5094141  0.2643112  0.7614858

 Al 
  0.7521076  0.0039429  0.7645438

 Al 
  0.7602074  0.2460348  0.4851257

 Al 
  0.4889783  0.4953480  0.5034689

 Al 
  0.4995198  0.7743552  0.7402851

 Al 
  0.7547436  0.4810702  0.7367507

 Al 
  0.7475657  0.7634474  0.4920623

