32 
charge = 0 
 Al 
  0.9881862  0.9914608  0.0221685

 Al 
  0.9985471  0.2442924  0.2501139

 Al 
  0.2421588  0.9979345  0.2442354

 Al 
  0.2490817  0.2429137  0.0034107

 Al 
  0.4811235  0.0019640  0.9929818

 Al 
  0.5038921  0.2574538  0.2581382

 Al 
  0.7441488  0.9818412  0.2348634

 Al 
  0.7403086  0.2430399  0.9997735

 Al 
  0.0058561  0.4906824  0.9826692

 Al 
  0.0100045  0.7289627  0.2376665

 Al 
  0.2532857  0.4927231  0.2436278

 Al 
  0.2527004  0.7653383  0.9930313

 Al 
  0.0110477  0.9915858  0.4828177

 Al 
  0.9903483  0.2457292  0.7689075

 Al 
  0.2381887  0.9970744  0.7361418

 Al 
  0.2598225  0.2634325  0.5052955

 Al 
  0.0059997  0.5123249  0.5129164

 Al 
  0.0013626  0.7567472  0.7471969

 Al 
  0.2670029  0.5007945  0.7795023

 Al 
  0.2580429  0.7672541  0.5104871

 Al 
  0.4911081  0.4972551  0.0161353

 Al 
  0.4707935  0.7536731  0.2450114

 Al 
  0.7589080  0.5057819  0.2448406

 Al 
  0.7476647  0.7231783  0.9912863

 Al 
  0.5135055  0.0216710  0.5130588

 Al 
  0.5089525  0.2663989  0.7639473

 Al 
  0.7549205  0.0029528  0.7642617

 Al 
  0.7584686  0.2458430  0.4862383

 Al 
  0.4914707  0.4951314  0.5035345

 Al 
  0.5000743  0.7702836  0.7432602

 Al 
  0.7559094  0.4814291  0.7319786

 Al 
  0.7471152  0.7628508  0.4905017

