32 
charge = 0 
 Al 
  0.9896849  0.9893087  0.0215484

 Al 
  0.9956339  0.2467365  0.2516113

 Al 
  0.2415066  0.9980521  0.2459742

 Al 
  0.2505396  0.2432936  0.0023266

 Al 
  0.4817856  0.0013762  0.9915871

 Al 
  0.5042226  0.2581654  0.2580664

 Al 
  0.7429459  0.9810282  0.2345713

 Al 
  0.7401168  0.2427640  0.0003131

 Al 
  0.0029343  0.4919571  0.9847074

 Al 
  0.0114376  0.7307596  0.2367012

 Al 
  0.2543575  0.4929422  0.2406713

 Al 
  0.2516299  0.7648470  0.9944681

 Al 
  0.0110737  0.9895401  0.4828882

 Al 
  0.9905326  0.2450658  0.7689236

 Al 
  0.2392740  0.9980607  0.7378484

 Al 
  0.2598980  0.2643458  0.5042671

 Al 
  0.0081890  0.5121739  0.5143396

 Al 
  0.9998527  0.7564168  0.7462923

 Al 
  0.2685548  0.5002030  0.7774578

 Al 
  0.2582521  0.7673395  0.5100762

 Al 
  0.4899411  0.4969964  0.0156564

 Al 
  0.4713616  0.7520556  0.2473999

 Al 
  0.7580466  0.5057237  0.2438555

 Al 
  0.7487921  0.7221264  0.9924249

 Al 
  0.5148322  0.0219172  0.5123632

 Al 
  0.5092805  0.2654138  0.7627345

 Al 
  0.7534726  0.0035209  0.7644634

 Al 
  0.7593287  0.2459235  0.4856121

 Al 
  0.4900871  0.4951166  0.5035134

 Al 
  0.4997426  0.7725014  0.7416910

 Al 
  0.7553388  0.4811024  0.7343782

 Al 
  0.7473516  0.7632246  0.4912702

