32 
charge = 0 
 Al 
  0.9997612  0.9802299  0.0098819

 Al 
  0.9826556  0.2628570  0.2578127

 Al 
  0.2440708  0.0034256  0.2576407

 Al 
  0.2569242  0.2447589  0.9964049

 Al 
  0.4903012  0.9976833  0.9882370

 Al 
  0.5047275  0.2577880  0.2545505

 Al 
  0.7333771  0.9781459  0.2342545

 Al 
  0.7411440  0.2437862  0.0081766

 Al 
  0.9868360  0.4981548  0.9998775

 Al 
  0.0166675  0.7423556  0.2374103

 Al 
  0.2537424  0.4932837  0.2277276

 Al 
  0.2449743  0.7568883  0.0003317

 Al 
  0.0048215  0.9821160  0.4868534

 Al 
  0.9978813  0.2394881  0.7632469

 Al 
  0.2466437  0.0098238  0.7517115

 Al 
  0.2539515  0.2642790  0.4987228

 Al 
  0.0226697  0.5074637  0.5187033

 Al 
  0.9894473  0.7542547  0.7438085

 Al 
  0.2711549  0.4989827  0.7574043

 Al 
  0.2591023  0.7617222  0.5041075

 Al 
  0.4911452  0.4976585  0.0086444

 Al 
  0.4838424  0.7438506  0.2622420

 Al 
  0.7496943  0.5028303  0.2437082

 Al 
  0.7524937  0.7240854  0.9966561

 Al 
  0.5167615  0.0205497  0.5037733

 Al 
  0.5065195  0.2545716  0.7521422

 Al 
  0.7459804  0.0037152  0.7626751

 Al 
  0.7652690  0.2481622  0.4870996

 Al 
  0.4885761  0.5023501  0.5023563

 Al 
  0.5002426  0.7773774  0.7349884

 Al 
  0.7500582  0.4870316  0.7510185

 Al 
  0.7485632  0.7603299  0.4978330

