32 
charge = 0 
 Al 
  0.9993676  0.9803265  0.0106517

 Al 
  0.9828672  0.2622370  0.2577546

 Al 
  0.2436513  0.0029875  0.2571890

 Al 
  0.2567967  0.2447243  0.9965819

 Al 
  0.4898210  0.9978850  0.9880872

 Al 
  0.5047968  0.2580046  0.2547980

 Al 
  0.7337855  0.9781595  0.2342186

 Al 
  0.7410054  0.2436662  0.0077348

 Al 
  0.9873026  0.4980669  0.9992315

 Al 
  0.0166712  0.7419014  0.2370105

 Al 
  0.2540864  0.4933172  0.2279862

 Al 
  0.2451228  0.7574217  0.0002636

 Al 
  0.0053487  0.9821593  0.4865242

 Al 
  0.9973813  0.2397047  0.7636862

 Al 
  0.2463319  0.0092198  0.7510891

 Al 
  0.2544206  0.2645376  0.4989518

 Al 
  0.0221053  0.5077954  0.5187206

 Al 
  0.9898619  0.7543451  0.7437713

 Al 
  0.2713727  0.4988998  0.7584389

 Al 
  0.2591159  0.7621603  0.5044218

 Al 
  0.4907245  0.4975162  0.0091666

 Al 
  0.4829761  0.7440931  0.2617012

 Al 
  0.7501906  0.5029875  0.2434026

 Al 
  0.7525630  0.7235756  0.9965930

 Al 
  0.5169571  0.0207316  0.5043463

 Al 
  0.5067930  0.2551780  0.7526954

 Al 
  0.7461747  0.0038179  0.7628645

 Al 
  0.7650772  0.2479815  0.4867210

 Al 
  0.4883112  0.5017932  0.5024677

 Al 
  0.5001386  0.7775989  0.7351072

 Al 
  0.7503552  0.4864982  0.7503156

 Al 
  0.7485248  0.7607086  0.4975075

