32 
charge = 0 
 Al 
  0.0033810  0.9808450  0.0013118

 Al 
  0.9825615  0.2683258  0.2573041

 Al 
  0.2495631  0.0086023  0.2616281

 Al 
  0.2575838  0.2452700  0.9951747

 Al 
  0.4953950  0.9952626  0.9911923

 Al 
  0.5035097  0.2549564  0.2517895

 Al 
  0.7298488  0.9786793  0.2350020

 Al 
  0.7429385  0.2450720  0.0124214

 Al 
  0.9834922  0.4980348  0.0060257

 Al 
  0.0152938  0.7467452  0.2433357

 Al 
  0.2492018  0.4927850  0.2265692

 Al 
  0.2445943  0.7506918  0.0000297

 Al 
  0.9984976  0.9830751  0.4909039

 Al 
  0.0031521  0.2378719  0.7580998

 Al 
  0.2499245  0.0154324  0.7575603

 Al 
  0.2487810  0.2605094  0.4962626

 Al 
  0.0274566  0.5038847  0.5174472

 Al 
  0.9858299  0.7531347  0.7448369

 Al 
  0.2676291  0.5005148  0.7469469

 Al 
  0.2584365  0.7568202  0.5009777

 Al 
  0.4966858  0.4995755  0.0022128

 Al 
  0.4937157  0.7419398  0.2667405

 Al 
  0.7439582  0.5015111  0.2483776

 Al 
  0.7505136  0.7314403  0.9970509

 Al 
  0.5136528  0.0179607  0.4970744

 Al 
  0.5034330  0.2482043  0.7462613

 Al 
  0.7447465  0.0025123  0.7602445

 Al 
  0.7663965  0.2503688  0.4927330

 Al 
  0.4928159  0.5083919  0.5008576

 Al 
  0.5014034  0.7731016  0.7347495

 Al 
  0.7466833  0.4932429  0.7577224

 Al 
  0.7489208  0.7552361  0.5011522

