32 
charge = 0 
 Al 
  0.0005408  0.9801223  0.0082719

 Al 
  0.9823387  0.2640736  0.2578672

 Al 
  0.2449953  0.0043624  0.2585256

 Al 
  0.2571444  0.2448344  0.9960732

 Al 
  0.4912913  0.9972551  0.9886219

 Al 
  0.5045579  0.2573090  0.2540332

 Al 
  0.7325739  0.9781521  0.2343436

 Al 
  0.7414509  0.2440374  0.0090676

 Al 
  0.9859648  0.4982711  0.0011683

 Al 
  0.0165846  0.7432627  0.2383261

 Al 
  0.2529739  0.4932058  0.2272858

 Al 
  0.2447342  0.7557621  0.0004121

 Al 
  0.0036941  0.9821036  0.4875613

 Al 
  0.9989147  0.2390736  0.7623162

 Al 
  0.2472811  0.0110341  0.7529565

 Al 
  0.2529689  0.2636899  0.4982526

 Al 
  0.0237736  0.5067732  0.5186117

 Al 
  0.9886318  0.7540654  0.7439223

 Al 
  0.2706326  0.4991882  0.7552968

 Al 
  0.2590491  0.7608002  0.5034714

 Al 
  0.4920796  0.4979766  0.0075194

 Al 
  0.4856690  0.7433877  0.2632902

 Al 
  0.7486486  0.5025222  0.2444161

 Al 
  0.7522796  0.7252413  0.9967650

 Al 
  0.5162999  0.0201450  0.5025568

 Al 
  0.5059403  0.2533253  0.7510037

 Al 
  0.7456289  0.0034936  0.7622642

 Al 
  0.7656168  0.2485508  0.4879672

 Al 
  0.4892010  0.5035172  0.5021088

 Al 
  0.5004628  0.7768118  0.7348003

 Al 
  0.7494369  0.4881664  0.7524256

 Al 
  0.7486399  0.7594909  0.4984976

