32 
charge = 0 
 Al 
  0.0030642  0.9806606  0.0021818

 Al 
  0.9824068  0.2678766  0.2574328

 Al 
  0.2489505  0.0080602  0.2612965

 Al 
  0.2575652  0.2451983  0.9952416

 Al 
  0.4948926  0.9955262  0.9908000

 Al 
  0.5036669  0.2552671  0.2520729

 Al 
  0.7301210  0.9785679  0.2348918

 Al 
  0.7427405  0.2449507  0.0120489

 Al 
  0.9837038  0.4981152  0.0054725

 Al 
  0.0155326  0.7463368  0.2426241

 Al 
  0.2497017  0.4928407  0.2265668

 Al 
  0.2445411  0.7513477  0.0001349

 Al 
  0.9991733  0.9828697  0.4904596

 Al 
  0.0026459  0.2379697  0.7586468

 Al 
  0.2495941  0.0149609  0.7570516

 Al 
  0.2492958  0.2609623  0.4965125

 Al 
  0.0270927  0.5042337  0.5176600

 Al 
  0.9861183  0.7532672  0.7446884

 Al 
  0.2680610  0.5003119  0.7479308

 Al 
  0.2585503  0.7573128  0.5012722

 Al 
  0.4960707  0.4993577  0.0029157

 Al 
  0.4926971  0.7420784  0.2664002

 Al 
  0.7445634  0.5016088  0.2478083

 Al 
  0.7508019  0.7305616  0.9970224

 Al 
  0.5140352  0.0182776  0.4977786

 Al 
  0.5037412  0.2488218  0.7468442

 Al 
  0.7448097  0.0026323  0.7605205

 Al 
  0.7663618  0.2501275  0.4920487

 Al 
  0.4922875  0.5078078  0.5010259

 Al 
  0.5012895  0.7736684  0.7346938

 Al 
  0.7470385  0.4925969  0.7571209

 Al 
  0.7488862  0.7558240  0.5008354

