32 
charge = 0 
 Al 
  0.0027338  0.9805010  0.0030617

 Al 
  0.9822855  0.2673977  0.2575479

 Al 
  0.2483417  0.0075145  0.2609462

 Al 
  0.2575368  0.2451327  0.9953220

 Al 
  0.4943827  0.9957886  0.9904225

 Al 
  0.5038179  0.2555777  0.2523576

 Al 
  0.7304168  0.9784689  0.2347891

 Al 
  0.7425437  0.2448245  0.0116578

 Al 
  0.9839439  0.4981845  0.0048970

 Al 
  0.0157505  0.7459173  0.2419286

 Al 
  0.2502005  0.4928964  0.2265903

 Al 
  0.2445077  0.7520036  0.0002252

 Al 
  0.9998490  0.9826865  0.4900191

 Al 
  0.0021261  0.2380860  0.7591926

 Al 
  0.2492612  0.0144609  0.7565170

 Al 
  0.2498193  0.2614041  0.4967638

 Al 
  0.0266955  0.5045901  0.5178543

 Al 
  0.9864277  0.7533959  0.7445485

 Al 
  0.2684818  0.5001176  0.7489419

 Al 
  0.2586530  0.7578140  0.5015742

 Al 
  0.4954594  0.4991436  0.0036149

 Al 
  0.4916712  0.7422306  0.2660301

 Al 
  0.7451686  0.5017165  0.2472526

 Al 
  0.7510730  0.7297040  0.9969927

 Al 
  0.5144077  0.0185832  0.4984840

 Al 
  0.5040567  0.2494530  0.7474358

 Al 
  0.7448852  0.0027548  0.7607928

 Al 
  0.7663086  0.2498874  0.4913841

 Al 
  0.4917752  0.5072088  0.5011942

 Al 
  0.5011732  0.7742117  0.7346555

 Al 
  0.7473937  0.4919459  0.7564972

 Al 
  0.7488515  0.7564007  0.5005111

