32 
charge = 0 
 Al 
  0.0036830  0.9810529  0.0004567

 Al 
  0.9827496  0.2687441  0.2571642

 Al 
  0.2501757  0.0091369  0.2619375

 Al 
  0.2575924  0.2453468  0.9951240

 Al 
  0.4958888  0.9949990  0.9915970

 Al 
  0.5033501  0.2546483  0.2515098

 Al 
  0.7296037  0.9788055  0.2351220

 Al 
  0.7431377  0.2451884  0.0127729

 Al 
  0.9833102  0.4979444  0.0065566

 Al 
  0.0150364  0.7471425  0.2440609

 Al 
  0.2487043  0.4927306  0.2265977

 Al 
  0.2446661  0.7500396  0.9999109

 Al 
  0.9978256  0.9833016  0.4913494

 Al 
  0.0036421  0.2377902  0.7575553

 Al 
  0.2502525  0.0158705  0.7580404

 Al 
  0.2482786  0.2600465  0.4960163

 Al 
  0.0277845  0.5035469  0.5172170

 Al 
  0.9855638  0.7529974  0.7449916

 Al 
  0.2671897  0.5007264  0.7459965

 Al 
  0.2583127  0.7563376  0.5006918

 Al 
  0.4973009  0.4997946  0.0015098

 Al 
  0.4947206  0.7418148  0.2670462

 Al 
  0.7433568  0.5014220  0.2489604

 Al 
  0.7502129  0.7323338  0.9970806

 Al 
  0.5132617  0.0176353  0.4963789

 Al 
  0.5031323  0.2476028  0.7456883

 Al 
  0.7446970  0.0023972  0.7599661

 Al 
  0.7664126  0.2506101  0.4934323

 Al 
  0.4933592  0.5089550  0.5006881

 Al 
  0.5015123  0.7725162  0.7348238

 Al 
  0.7463306  0.4938815  0.7582954

 Al 
  0.7489555  0.7546409  0.5014603

