32 
charge = 0 
 Al 
  0.0056631  0.9837063  0.9938877

 Al 
  0.9855119  0.2709358  0.2556309

 Al 
  0.2552015  0.0132283  0.2636417

 Al 
  0.2573536  0.2463207  0.9952898

 Al 
  0.4996300  0.9927813  0.9954396

 Al 
  0.5018799  0.2522412  0.2492760

 Al 
  0.7287808  0.9805146  0.2365984

 Al 
  0.7447886  0.2459321  0.0148297

 Al 
  0.9828202  0.4969717  0.0101047

 Al 
  0.0121516  0.7501213  0.2505903

 Al 
  0.2447936  0.4924199  0.2278229

 Al 
  0.2459259  0.7446166  0.9984147

 Al 
  0.9923556  0.9860564  0.4951760

 Al 
  0.0070714  0.2378632  0.7530333

 Al 
  0.2529640  0.0180486  0.7608806

 Al 
  0.2445733  0.2557485  0.4940820

 Al 
  0.0289305  0.5011732  0.5145401

 Al 
  0.9843238  0.7515445  0.7465744

 Al 
  0.2632865  0.5027561  0.7393409

 Al 
  0.2568202  0.7527573  0.4985521

 Al 
  0.5023365  0.5016781  0.9955683

 Al 
  0.5025271  0.7412900  0.2682021

 Al 
  0.7384956  0.5010371  0.2542770

 Al 
  0.7472217  0.7404646  0.9974259

 Al 
  0.5096827  0.0144411  0.4908977

 Al 
  0.5009975  0.2432862  0.7412554

 Al 
  0.7447663  0.0016596  0.7574576

 Al 
  0.7657183  0.2527239  0.4998762

 Al 
  0.4984555  0.5126627  0.4993775

 Al 
  0.5022363  0.7668110  0.7361542

 Al 
  0.7434100  0.4989048  0.7620440

 Al 
  0.7493292  0.7493033  0.5037572

