32 
charge = 0 
 Al 
  0.0055059  0.9833560  0.9944990

 Al 
  0.9851356  0.2708344  0.2558091

 Al 
  0.2547089  0.0128570  0.2635501

 Al 
  0.2574031  0.2461858  0.9952230

 Al 
  0.4992835  0.9930078  0.9950151

 Al 
  0.5020370  0.2524652  0.2494938

 Al 
  0.7287424  0.9802708  0.2363955

 Al 
  0.7446203  0.2458789  0.0147035

 Al 
  0.9827867  0.4970769  0.0098238

 Al 
  0.0125105  0.7498416  0.2498911

 Al 
  0.2451587  0.4924311  0.2276100

 Al 
  0.2457453  0.7451673  0.9986077

 Al 
  0.9928964  0.9856975  0.4947762

 Al 
  0.0067831  0.2377840  0.7534912

 Al 
  0.2526855  0.0179694  0.7607000

 Al 
  0.2449025  0.2562249  0.4942651

 Al 
  0.0289676  0.5013725  0.5148842

 Al 
  0.9843597  0.7517264  0.7463888

 Al 
  0.2636986  0.5025283  0.7399027

 Al 
  0.2570133  0.7530778  0.4987538

 Al 
  0.5018415  0.5014814  0.9961772

 Al 
  0.5017920  0.7412962  0.2682157

 Al 
  0.7389696  0.5010495  0.2537015

 Al 
  0.7475620  0.7395834  0.9973764

 Al 
  0.5100713  0.0148124  0.4914175

 Al 
  0.5011769  0.2436587  0.7416786

 Al 
  0.7447218  0.0017115  0.7577311

 Al 
  0.7658643  0.2524986  0.4991708

 Al 
  0.4978924  0.5123880  0.4994938

 Al 
  0.5021806  0.7674620  0.7359537

 Al 
  0.7437033  0.4984209  0.7617568

 Al 
  0.7492785  0.7498800  0.5035444

