32 
charge = 0 
 Al 
  0.0044911  0.9817979  0.9980137

 Al 
  0.9834847  0.2697960  0.2566878

 Al 
  0.2519776  0.0106703  0.2627259

 Al 
  0.2575714  0.2456141  0.9950597

 Al 
  0.4972860  0.9942193  0.9928630

 Al 
  0.5028538  0.2537572  0.2507017

 Al 
  0.7290431  0.9792585  0.2355329

 Al 
  0.7437206  0.2455027  0.0136887

 Al 
  0.9829303  0.4976338  0.0079947

 Al 
  0.0141738  0.7482563  0.2462700

 Al 
  0.2472625  0.4925833  0.2268217

 Al 
  0.2449780  0.7481226  0.9994839

 Al 
  0.9958641  0.9840911  0.4926749

 Al 
  0.0049923  0.2376528  0.7559552

 Al 
  0.2512079  0.0169596  0.7592929

 Al 
  0.2468640  0.2586233  0.4953072

 Al 
  0.0285357  0.5026125  0.5164373

 Al 
  0.9849191  0.7525556  0.7454903

 Al 
  0.2658569  0.5013873  0.7433790

 Al 
  0.2578833  0.7549750  0.4998923

 Al 
  0.4991065  0.5004468  0.9994270

 Al 
  0.4976028  0.7415202  0.2677553

 Al 
  0.7416044  0.5012165  0.2507450

 Al 
  0.7492525  0.7350663  0.9971746

 Al 
  0.5120625  0.0166130  0.4943679

 Al 
  0.5022957  0.2459297  0.7440560

 Al 
  0.7446265  0.0020865  0.7591208

 Al 
  0.7663433  0.2513341  0.4955794

 Al 
  0.4950423  0.5104871  0.5001968

 Al 
  0.5018081  0.7706722  0.7351406

 Al 
  0.7452948  0.4957180  0.7598361

 Al 
  0.7490644  0.7528377  0.5023241

