32 
charge = 0 
 Al 
  0.0062509  0.9856282  0.9912430

 Al 
  0.9875501  0.2709210  0.2547634

 Al 
  0.2573759  0.0147431  0.2637419

 Al 
  0.2570430  0.2471128  0.9957663

 Al 
  0.5011150  0.9917356  0.9975162

 Al 
  0.5011460  0.2512945  0.2482959

 Al 
  0.7294639  0.9819650  0.2377952

 Al 
  0.7455881  0.2460943  0.0151069

 Al 
  0.9832273  0.4965187  0.0111244

 Al 
  0.0102359  0.7513824  0.2539577

 Al 
  0.2432652  0.4924818  0.2291520

 Al 
  0.2469395  0.7420375  0.9973776

 Al 
  0.9898904  0.9880303  0.4970992

 Al 
  0.0082088  0.2385129  0.7508960

 Al 
  0.2543018  0.0178568  0.7613138

 Al 
  0.2432107  0.2533724  0.4932924

 Al 
  0.0281385  0.5003960  0.5126504

 Al 
  0.9844983  0.7505371  0.7475410

 Al 
  0.2613200  0.5038711  0.7371256

 Al 
  0.2557695  0.7514393  0.4976325

 Al 
  0.5045431  0.5026075  0.9927009

 Al 
  0.5057101  0.7414249  0.2676402

 Al 
  0.7363942  0.5010433  0.2570665

 Al 
  0.7455423  0.7447738  0.9977365

 Al 
  0.5077929  0.0125142  0.4886342

 Al 
  0.5003057  0.2418024  0.7393508

 Al 
  0.7450807  0.0015074  0.7560938

 Al 
  0.7647418  0.2538265  0.5033377

 Al 
  0.5012252  0.5135167  0.4989456

 Al 
  0.5024182  0.7635105  0.7373385

 Al 
  0.7420709  0.5010631  0.7630489

 Al 
  0.7496337  0.7464779  0.5047126

