32 
charge = 0 
 Al 
  0.0064725  0.9869351  0.9899510

 Al 
  0.9888879  0.2704965  0.2542659

 Al 
  0.2584575  0.0153792  0.2635154

 Al 
  0.2568078  0.2476969  0.9961438

 Al 
  0.5018279  0.9911650  0.9987377

 Al 
  0.5007487  0.2508589  0.2477823

 Al 
  0.7302856  0.9830615  0.2387011

 Al 
  0.7460559  0.2461153  0.0149993

 Al 
  0.9836407  0.4963257  0.0114536

 Al 
  0.0089686  0.7520605  0.2559019

 Al 
  0.2425783  0.4926328  0.2301755

 Al 
  0.2476239  0.7405920  0.9966982

 Al 
  0.9885711  0.9893830  0.4982204

 Al 
  0.0086790  0.2391169  0.7497055

 Al 
  0.2550827  0.0172739  0.7612123

 Al 
  0.2425957  0.2519256  0.4929199

 Al 
  0.0271694  0.5000829  0.5113559

 Al 
  0.9848844  0.7498329  0.7481597

 Al 
  0.2601963  0.5045221  0.7362160

 Al 
  0.2550715  0.7508514  0.4971264

 Al 
  0.5056717  0.5031286  0.9910945

 Al 
  0.5072707  0.7416403  0.2669138

 Al 
  0.7353423  0.5010767  0.2586840

 Al 
  0.7445535  0.7473244  0.9979815

 Al 
  0.5066903  0.0112717  0.4875254

 Al 
  0.5000384  0.2411947  0.7383409

 Al 
  0.7453245  0.0014962  0.7552547

 Al 
  0.7639523  0.2544886  0.5053908

 Al 
  0.5028526  0.5136219  0.4988132

 Al 
  0.5024553  0.7614611  0.7382023

 Al 
  0.7413705  0.5021905  0.7633310

 Al 
  0.7498713  0.7447985  0.5052262

