32 
charge = 0 
 Al 
  0.0065752  0.9878818  0.9891948

 Al 
  0.9898285  0.2700299  0.2539441

 Al 
  0.2590887  0.0156873  0.2632382

 Al 
  0.2566296  0.2481399  0.9964272

 Al 
  0.5022350  0.9908061  0.9995520

 Al 
  0.5005037  0.2506225  0.2474630

 Al 
  0.7310195  0.9839104  0.2394040

 Al 
  0.7463702  0.2461017  0.0148149

 Al 
  0.9839798  0.4962366  0.0115625

 Al 
  0.0080602  0.7524937  0.2571803

 Al 
  0.2422157  0.4927900  0.2309663

 Al 
  0.2481127  0.7396552  0.9962192

 Al 
  0.9877444  0.9903705  0.4989703

 Al 
  0.0089179  0.2396181  0.7489345

 Al 
  0.2556074  0.0166861  0.7609957

 Al 
  0.2422590  0.2509356  0.4927157

 Al 
  0.0263044  0.4999295  0.5104104

 Al 
  0.9852606  0.7493107  0.7485991

 Al 
  0.2594550  0.5049478  0.7357581

 Al 
  0.2545740  0.7505359  0.4967960

 Al 
  0.5063512  0.5034615  0.9900574

 Al 
  0.5081840  0.7418395  0.2662628

 Al 
  0.7347272  0.5011002  0.2597470

 Al 
  0.7439038  0.7490347  0.9981734

 Al 
  0.5059601  0.0103881  0.4868831

 Al 
  0.4999146  0.2408990  0.7377073

 Al 
  0.7455052  0.0015210  0.7546718

 Al 
  0.7633298  0.2549403  0.5067682

 Al 
  0.5039255  0.5135216  0.4987822

 Al 
  0.5024491  0.7600478  0.7388458

 Al 
  0.7409485  0.5028848  0.7633929

 Al 
  0.7500594  0.7436711  0.5055567

