32 
charge = 0 
 Al 
  0.0066222  0.9944693  0.9864116

 Al 
  0.9956685  0.2644634  0.2522685

 Al 
  0.2611207  0.0154695  0.2595391

 Al 
  0.2553252  0.2515061  0.9982711

 Al 
  0.5035048  0.9892072  0.0041718

 Al 
  0.4995149  0.2501782  0.2459383

 Al 
  0.7381392  0.9907913  0.2451624

 Al 
  0.7482885  0.2457205  0.0121009

 Al 
  0.9867210  0.4964804  0.0106319

 Al 
  0.0018440  0.7548030  0.2641367

 Al 
  0.2416861  0.4947379  0.2372618

 Al 
  0.2512400  0.7347310  0.9932392

 Al 
  0.9837756  0.9973046  0.5033884

 Al 
  0.0093461  0.2441067  0.7448542

 Al 
  0.2587001  0.0103374  0.7575838

 Al 
  0.2413717  0.2449656  0.4923345

 Al 
  0.0180300  0.4996906  0.5037251

 Al 
  0.9892530  0.7455373  0.7515692

 Al 
  0.2551631  0.5070182  0.7350478

 Al 
  0.2513452  0.7498144  0.4948951

 Al 
  0.5091344  0.5050035  0.9848708

 Al 
  0.5115279  0.7437961  0.2601084

 Al 
  0.7327892  0.5009938  0.2652777

 Al 
  0.7406044  0.7589785  0.9998144

 Al 
  0.5019306  0.0043401  0.4847916

 Al 
  0.4999047  0.2408012  0.7346097

 Al 
  0.7465856  0.0020383  0.7509009

 Al 
  0.7582904  0.2577496  0.5147245

 Al 
  0.5094649  0.5103200  0.4995582

 Al 
  0.5019182  0.7513898  0.7434694

 Al 
  0.7395178  0.5059552  0.7619474

 Al 
  0.7516732  0.7373001  0.5073932

