32 
charge = 0 
 Al 
  0.0066841  0.9899955  0.9879152

 Al 
  0.9918296  0.2686204  0.2533179

 Al 
  0.2601270  0.0160091  0.2623484

 Al 
  0.2562212  0.2491758  0.9970583

 Al 
  0.5028934  0.9901379  0.0011992

 Al 
  0.5000656  0.2502834  0.2468702

 Al 
  0.7329810  0.9859475  0.2410982

 Al 
  0.7470261  0.2460150  0.0141701

 Al 
  0.9848089  0.4961697  0.0115217

 Al 
  0.0060554  0.7533377  0.2597297

 Al 
  0.2417219  0.4932689  0.2328511

 Al 
  0.2491696  0.7378174  0.9951958

 Al 
  0.9861876  0.9925895  0.5005086

 Al 
  0.0092359  0.2408903  0.7474234

 Al 
  0.2566853  0.0150005  0.7601975

 Al 
  0.2417467  0.2488701  0.4924175

 Al 
  0.0240050  0.4997339  0.5082818

 Al 
  0.9863225  0.7481201  0.7495594

 Al 
  0.2579575  0.5057708  0.7351666

 Al 
  0.2534949  0.7500767  0.4961289

 Al 
  0.5075504  0.5040939  0.9880526

 Al 
  0.5097297  0.7423816  0.2645389

 Al 
  0.7337124  0.5011274  0.2618435

 Al 
  0.7426291  0.7525395  0.9986473

 Al 
  0.5044936  0.0084427  0.4858262

 Al 
  0.4997884  0.2405623  0.7365081

 Al 
  0.7458950  0.0016398  0.7534243

 Al 
  0.7618299  0.2558908  0.5095849

 Al 
  0.5060430  0.5128929  0.4988701

 Al 
  0.5023563  0.7570702  0.7403185

 Al 
  0.7402270  0.5041533  0.7632184

 Al 
  0.7505247  0.7413754  0.5062101

