32 
charge = 0 
 Al 
  0.0066680  0.9930981  0.9867408

 Al 
  0.9945436  0.2658730  0.2525618

 Al 
  0.2609561  0.0157814  0.2605131

 Al 
  0.2556012  0.2507760  0.9979234

 Al 
  0.5034070  0.9894287  0.0033167

 Al 
  0.4996386  0.2501398  0.2461908

 Al 
  0.7364425  0.9892382  0.2438555

 Al 
  0.7479147  0.2458183  0.0128137

 Al 
  0.9861207  0.4963306  0.0109896

 Al 
  0.0031347  0.7543847  0.2629016

 Al 
  0.2415809  0.4942305  0.2358571

 Al 
  0.2506299  0.7355836  0.9938085

 Al 
  0.9844166  0.9958591  0.5025444

 Al 
  0.0093683  0.2430560  0.7455708

 Al 
  0.2581110  0.0118868  0.7584847

 Al 
  0.2414088  0.2461079  0.4922937

 Al 
  0.0199842  0.4996708  0.5051285

 Al 
  0.9882766  0.7463331  0.7509517

 Al 
  0.2559886  0.5067014  0.7349735

 Al 
  0.2519863  0.7498193  0.4952552

 Al 
  0.5087533  0.5047819  0.9857148

 Al 
  0.5111381  0.7433357  0.2615502

 Al 
  0.7329241  0.5010655  0.2643532

 Al 
  0.7411353  0.7571160  0.9994357

 Al 
  0.5026533  0.0056024  0.4849686

 Al 
  0.4998342  0.2406267  0.7351183

 Al 
  0.7463962  0.0019046  0.7516645

 Al 
  0.7594166  0.2571952  0.5132432

 Al 
  0.5085540  0.5112470  0.4992909

 Al 
  0.5020803  0.7530543  0.7425066

 Al 
  0.7396292  0.5055047  0.7624326

 Al 
  0.7513032  0.7384498  0.5070492

