32 
charge = 0 
 Al 
  0.0066828  0.9924373  0.9869363

 Al 
  0.9939854  0.2665128  0.2527103

 Al 
  0.2608373  0.0158891  0.2609487

 Al 
  0.2557349  0.2504294  0.9977476

 Al 
  0.5033340  0.9895550  0.0028897

 Al 
  0.4997104  0.2501411  0.2463207

 Al 
  0.7356591  0.9885105  0.2432441

 Al 
  0.7477315  0.2458641  0.0131343

 Al 
  0.9858361  0.4962749  0.0111381

 Al 
  0.0037560  0.7541755  0.2622729

 Al 
  0.2415648  0.4940028  0.2351963

 Al 
  0.2503280  0.7360217  0.9940919

 Al 
  0.9847545  0.9951624  0.5021261

 Al 
  0.0093634  0.2425697  0.7459358

 Al 
  0.2578202  0.0125996  0.7588906

 Al 
  0.2414484  0.2466734  0.4922937

 Al 
  0.0208913  0.4996696  0.5058029

 Al 
  0.9878286  0.7467155  0.7506559

 Al 
  0.2563932  0.5065294  0.7349673

 Al 
  0.2523006  0.7498428  0.4954334

 Al 
  0.5085392  0.5046569  0.9861603

 Al 
  0.5109054  0.7431204  0.2622209

 Al 
  0.7330318  0.5010903  0.2638694

 Al 
  0.7414187  0.7561866  0.9992587

 Al 
  0.5030197  0.0062076  0.4850948

 Al 
  0.4998082  0.2405710  0.7353844

 Al 
  0.7462985  0.0018415  0.7520346

 Al 
  0.7599475  0.2569242  0.5125031

 Al 
  0.5080739  0.5116541  0.4991783

 Al 
  0.5021509  0.7538785  0.7420400

 Al 
  0.7397159  0.5052584  0.7626392

 Al 
  0.7511287  0.7390340  0.5068784

