32 
charge = 0 
 Al 
  0.0066927  0.9917962  0.9871529

 Al 
  0.9934347  0.2671081  0.2528612

 Al 
  0.2606925  0.0159633  0.2613497

 Al 
  0.2558636  0.2500953  0.9975719

 Al 
  0.5032461  0.9896899  0.0024627

 Al 
  0.4997909  0.2501572  0.2464544

 Al 
  0.7349203  0.9878174  0.2426625

 Al 
  0.7475496  0.2459061  0.0134313

 Al 
  0.9855614  0.4962316  0.0112668

 Al 
  0.0043599  0.7539664  0.2616393

 Al 
  0.2415697  0.4937936  0.2345651

 Al 
  0.2500297  0.7364660  0.9943740

 Al 
  0.9851010  0.9944854  0.5017140

 Al 
  0.0093485  0.2421093  0.7463046

 Al 
  0.2575306  0.0132679  0.7592656

 Al 
  0.2415029  0.2472340  0.4923073

 Al 
  0.0217477  0.4996758  0.5064551

 Al 
  0.9874090  0.7470868  0.7503676

 Al 
  0.2567930  0.5063487  0.7349822

 Al 
  0.2526088  0.7498800  0.4956104

 Al 
  0.5083127  0.5045245  0.9866195

 Al 
  0.5106468  0.7429174  0.2628558

 Al 
  0.7331667  0.5011089  0.2633743

 Al 
  0.7417120  0.7552621  0.9990916

 Al 
  0.5033872  0.0067955  0.4852445

 Al 
  0.4997909  0.2405364  0.7356579

 Al 
  0.7461982  0.0017846  0.7523959

 Al 
  0.7604549  0.2566568  0.5117643

 Al 
  0.5075801  0.5120229  0.4990793

 Al 
  0.5022128  0.7546941  0.7415871

 Al 
  0.7398198  0.5049998  0.7628224

 Al 
  0.7509641  0.7396206  0.5067101

