32 
charge = 0 
 Al 
  0.0066940  0.9905747  0.9876417

 Al 
  0.9923543  0.2681612  0.2531644

 Al 
  0.2603374  0.0160227  0.2620489

 Al 
  0.2561061  0.2494678  0.9972266

 Al 
  0.5030246  0.9899819  0.0016175

 Al 
  0.4999678  0.2502289  0.2467291

 Al 
  0.7335813  0.9865366  0.2415908

 Al 
  0.7471969  0.2459829  0.0139486

 Al 
  0.9850478  0.4961796  0.0114586

 Al 
  0.0055096  0.7535469  0.2603671

 Al 
  0.2416502  0.4934261  0.2333931

 Al 
  0.2494505  0.7373645  0.9949260

 Al 
  0.9858175  0.9931984  0.5009047

 Al 
  0.0092854  0.2412702  0.7470484

 Al 
  0.2569638  0.0144683  0.7599191

 Al 
  0.2416526  0.2483330  0.4923692

 Al 
  0.0233045  0.4997067  0.5076964

 Al 
  0.9866566  0.7477885  0.7498193

 Al 
  0.2575751  0.5059688  0.7350824

 Al 
  0.2532065  0.7499975  0.4959581

 Al 
  0.5078177  0.5042424  0.9875674

 Al 
  0.5100589  0.7425486  0.2640154

 Al 
  0.7335082  0.5011262  0.2623595

 Al 
  0.7423184  0.7534379  0.9987860

 Al 
  0.5041260  0.0079117  0.4856109

 Al 
  0.4997810  0.2405326  0.7362197

 Al 
  0.7459952  0.0016831  0.7530902

 Al 
  0.7613955  0.2561408  0.5103052

 Al 
  0.5065628  0.5126417  0.4989258

 Al 
  0.5023167  0.7562918  0.7407257

 Al 
  0.7400772  0.5044466  0.7631120

 Al 
  0.7506621  0.7407925  0.5063759

