32 
charge = 0 
 Al 
  0.0063524  0.9994765  0.9859475

 Al 
  0.9994270  0.2585305  0.2513353

 Al 
  0.2608547  0.0134078  0.2552547

 Al 
  0.2543327  0.2542560  0.9992909

 Al 
  0.5033031  0.9888978  0.0069551

 Al 
  0.4993416  0.2507339  0.2452007

 Al 
  0.7449718  0.9969222  0.2503317

 Al 
  0.7495570  0.2453752  0.0090231

 Al 
  0.9889609  0.4973689  0.0088944

 Al 
  0.9970954  0.7561866  0.2679026

 Al 
  0.2427603  0.4969556  0.2427442

 Al 
  0.2532746  0.7322014  0.9914200

 Al 
  0.9820157  0.0025358  0.5062732

 Al 
  0.0090033  0.2483615  0.7426835

 Al 
  0.2606715  0.0040307  0.7537585

 Al 
  0.2417083  0.2411514  0.4929075

 Al 
  0.0102247  0.4998614  0.4985941

 Al 
  0.9932714  0.7426588  0.7538513

 Al 
  0.2522289  0.5076766  0.7358200

 Al 
  0.2491399  0.7502017  0.4936996

 Al 
  0.5099550  0.5053834  0.9826927

 Al 
  0.5120415  0.7455831  0.2544453

 Al 
  0.7332731  0.5004901  0.2677306

 Al 
  0.7393582  0.7650859  0.0013192

 Al 
  0.4996931  0.9996572  0.4849946

 Al 
  0.5002549  0.2419707  0.7332347

 Al 
  0.7470769  0.0025444  0.7481734

 Al 
  0.7539429  0.2596579  0.5195015

 Al 
  0.5117742  0.5061680  0.5008514

 Al 
  0.5011670  0.7458566  0.7468789

 Al 
  0.7398718  0.5069836  0.7597136

 Al 
  0.7531001  0.7338251  0.5085751

