32 
charge = 0 
 Al 
  0.0062175  0.0014962  0.9860576

 Al 
  0.0007883  0.2558165  0.2510024

 Al 
  0.2603708  0.0121628  0.2531954

 Al 
  0.2539515  0.2554020  0.9995582

 Al 
  0.5029726  0.9890476  0.0079266

 Al 
  0.4993874  0.2511287  0.2449829

 Al 
  0.7479729  0.9996151  0.2525976

 Al 
  0.7500198  0.2452564  0.0075677

 Al 
  0.9898829  0.4978838  0.0080392

 Al 
  0.9951574  0.7566952  0.2690721

 Al 
  0.2434842  0.4980112  0.2451178

 Al 
  0.2539949  0.7314428  0.9908321

 Al 
  0.9815677  0.0046087  0.5073660

 Al 
  0.0087718  0.2502772  0.7420128

 Al 
  0.2613856  0.0012326  0.7520049

 Al 
  0.2420536  0.2397703  0.4933271

 Al 
  0.0068140  0.4999394  0.4965323

 Al 
  0.9950745  0.7415276  0.7547857

 Al 
  0.2510433  0.5076890  0.7362890

 Al 
  0.2483157  0.7505111  0.4932800

 Al 
  0.5100614  0.5053104  0.9822459

 Al 
  0.5118794  0.7463183  0.2520271

 Al 
  0.7339154  0.5001695  0.2682652

 Al 
  0.7392233  0.7672331  0.0019702

 Al 
  0.4989716  0.9977216  0.4854426

 Al 
  0.5003737  0.2426340  0.7329241

 Al 
  0.7471672  0.0027301  0.7471053

 Al 
  0.7521051  0.2603572  0.5211190

 Al 
  0.5122011  0.5041990  0.5014913

 Al 
  0.5008019  0.7438803  0.7481659

 Al 
  0.7403953  0.5071420  0.7586617

 Al 
  0.7536743  0.7327905  0.5090354

