32 
charge = 0 
 Al 
  0.0059106  0.0059663  0.9869660

 Al 
  0.0034417  0.2491164  0.2503329

 Al 
  0.2583214  0.0083189  0.2477984

 Al 
  0.2532028  0.2580380  0.9996510

 Al 
  0.5016002  0.9903421  0.0095936

 Al 
  0.4997612  0.2523774  0.2447404

 Al 
  0.7550666  0.0062138  0.2580751

 Al 
  0.7508923  0.2451116  0.0037523

 Al 
  0.9919657  0.4994369  0.0058995

 Al 
  0.9908235  0.7577273  0.2706079

 Al 
  0.2457960  0.5007376  0.2508193

 Al 
  0.2552745  0.7304775  0.9900587

 Al 
  0.9813586  0.0090293  0.5096839

 Al 
  0.0080590  0.2550616  0.7411329

 Al 
  0.2627073  0.9945052  0.7476610

 Al 
  0.2434038  0.2371207  0.4947193

 Al 
  0.9987476  0.4999777  0.4920660

 Al 
  0.9994555  0.7392109  0.7568239

 Al 
  0.2483380  0.5069093  0.7375291

 Al 
  0.2466623  0.7514900  0.4925746

 Al 
  0.5098213  0.5044057  0.9825009

 Al 
  0.5106331  0.7478306  0.2465336

 Al 
  0.7365242  0.4991325  0.2680560

 Al 
  0.7401465  0.7710930  0.0034652

 Al 
  0.4978689  0.9932825  0.4873397

 Al 
  0.5003267  0.2444483  0.7330726

 Al 
  0.7470175  0.0030023  0.7448814

 Al 
  0.7479345  0.2615786  0.5236758

 Al 
  0.5116034  0.4992760  0.5031162

 Al 
  0.4999047  0.7402307  0.7506114

 Al 
  0.7426959  0.5068796  0.7561643

 Al 
  0.7547362  0.7316742  0.5100960

