32 
charge = 0 
 Al 
  0.0060888  0.0033340  0.9863113

 Al 
  0.0019442  0.2531818  0.2507165

 Al 
  0.2597136  0.0107891  0.2511324

 Al 
  0.2536236  0.2564675  0.9996980

 Al 
  0.5025296  0.9893817  0.0087112

 Al 
  0.4994914  0.2515767  0.2448344

 Al 
  0.7508180  0.0022016  0.2547634

 Al 
  0.7504096  0.2451710  0.0061136

 Al 
  0.9907319  0.4984431  0.0071964

 Al 
  0.9933803  0.7571358  0.2699124

 Al 
  0.2443035  0.4990595  0.2473751

 Al 
  0.2545839  0.7309081  0.9904039

 Al 
  0.9813239  0.0064626  0.5083313

 Al 
  0.0085169  0.2521397  0.7415326

 Al 
  0.2619833  0.9985607  0.7503007

 Al 
  0.2424954  0.2386033  0.4938147

 Al 
  0.0035840  0.4999901  0.4946723

 Al 
  0.9968083  0.7405314  0.7556346

 Al 
  0.2499493  0.5075293  0.7367717

 Al 
  0.2476053  0.7508651  0.4929434

 Al 
  0.5100465  0.5050889  0.9821086

 Al 
  0.5115328  0.7469717  0.2497822

 Al 
  0.7347656  0.4998057  0.2684558

 Al 
  0.7393557  0.7689941  0.0025778

 Al 
  0.4984221  0.9959272  0.4860551

 Al 
  0.5004282  0.2433246  0.7328103

 Al 
  0.7471759  0.0028749  0.7461586

 Al 
  0.7504010  0.2609314  0.5223788

 Al 
  0.5122605  0.5022672  0.5021274

 Al 
  0.5004443  0.7422392  0.7492587

 Al 
  0.7411168  0.5071457  0.7576531

 Al 
  0.7541656  0.7320949  0.5094575

