32 
charge = 0 
 Al 
  0.0060504  0.0039033  0.9864227

 Al 
  0.0022833  0.2523340  0.2506312

 Al 
  0.2594624  0.0103114  0.2504542

 Al 
  0.2535258  0.2568016  0.9997154

 Al 
  0.5023600  0.9895339  0.0089303

 Al 
  0.4995372  0.2517326  0.2448010

 Al 
  0.7517190  0.0030345  0.2554564

 Al 
  0.7505223  0.2451512  0.0056346

 Al 
  0.9909967  0.4986362  0.0069254

 Al 
  0.9928283  0.7572682  0.2701203

 Al 
  0.2445906  0.4994035  0.2480954

 Al 
  0.2547510  0.7307782  0.9902987

 Al 
  0.9812881  0.0070269  0.5086258

 Al 
  0.0084278  0.2527424  0.7414138

 Al 
  0.2621553  0.9977093  0.7497512

 Al 
  0.2426613  0.2382630  0.4939879

 Al 
  0.0025605  0.4999988  0.4941018

 Al 
  0.9973628  0.7402332  0.7558957

 Al 
  0.2496065  0.5074402  0.7369301

 Al 
  0.2473937  0.7509876  0.4928518

 Al 
  0.5100181  0.5049824  0.9821284

 Al 
  0.5113819  0.7471672  0.2490817

 Al 
  0.7350861  0.4996770  0.2684446

 Al 
  0.7394584  0.7694941  0.0027684

 Al 
  0.4982773  0.9953641  0.4862890

 Al 
  0.5004282  0.2435535  0.7328177

 Al 
  0.7471610  0.0029120  0.7458727

 Al 
  0.7498688  0.2610923  0.5227167

 Al 
  0.5122024  0.5016435  0.5023340

 Al 
  0.5003304  0.7417677  0.7495755

 Al 
  0.7413965  0.5071185  0.7573338

 Al 
  0.7543067  0.7319390  0.5095911

