32 
charge = 0 
 Al 
  0.0061730  0.0021311  0.9861282

 Al 
  0.0011967  0.2549255  0.2509022

 Al 
  0.2601691  0.0117172  0.2525061

 Al 
  0.2538352  0.2557670  0.9996201

 Al 
  0.5028365  0.9891392  0.0082100

 Al 
  0.4994159  0.2512735  0.2449260

 Al 
  0.7489431  0.0004913  0.2533328

 Al 
  0.7501584  0.2452242  0.0070813

 Al 
  0.9901750  0.4980657  0.0077558

 Al 
  0.9945448  0.7568499  0.2693889

 Al 
  0.2437491  0.4983627  0.2458863

 Al 
  0.2542065  0.7312398  0.9906713

 Al 
  0.9814638  0.0052535  0.5077014

 Al 
  0.0086889  0.2509059  0.7418321

 Al 
  0.2615984  0.0003242  0.7514281

 Al 
  0.2421910  0.2393570  0.4934830

 Al 
  0.0057126  0.4999592  0.4958888

 Al 
  0.9956636  0.7411799  0.7550790

 Al 
  0.2506683  0.5076543  0.7364499

 Al 
  0.2480669  0.7506250  0.4931588

 Al 
  0.5100688  0.5052522  0.9821667

 Al 
  0.5117828  0.7465460  0.2512561

 Al 
  0.7341790  0.5000520  0.2683667

 Al 
  0.7392382  0.7678642  0.0021781

 Al 
  0.4987699  0.9971066  0.4856307

 Al 
  0.5003997  0.2428630  0.7328635

 Al 
  0.7471796  0.0027845  0.7467749

 Al 
  0.7515197  0.2605638  0.5215794

 Al 
  0.5122618  0.5035469  0.5017054

 Al 
  0.5006807  0.7432949  0.7485533

 Al 
  0.7406143  0.5071593  0.7583189

 Al 
  0.7538488  0.7325207  0.5091802

