32 
charge = 0 
 Al 
  0.0058029  0.0077447  0.9876256

 Al 
  0.0043426  0.2461574  0.2500928

 Al 
  0.2569836  0.0061965  0.2452280

 Al 
  0.2529739  0.2591419  0.9993812

 Al 
  0.5007289  0.9914794  0.0099389

 Al 
  0.5000384  0.2530345  0.2447948

 Al 
  0.7580318  0.0092186  0.2604921

 Al 
  0.7511435  0.2451364  0.0018959

 Al 
  0.9928135  0.5002834  0.0049824

 Al 
  0.9890995  0.7580998  0.2705893

 Al 
  0.2470794  0.5020197  0.2533451

 Al 
  0.2555925  0.7304923  0.9900970

 Al 
  0.9817719  0.0106703  0.5106084

 Al 
  0.0076630  0.2572620  0.7411353

 Al 
  0.2630550  0.9915821  0.7457193

 Al 
  0.2442713  0.2362767  0.4954977

 Al 
  0.9953393  0.4998540  0.4903755

 Al 
  0.0013712  0.7384523  0.7575726

 Al 
  0.2472056  0.5061136  0.7380575

 Al 
  0.2460782  0.7519875  0.4924348

 Al 
  0.5095169  0.5035877  0.9833016

 Al 
  0.5096728  0.7483058  0.2443592

 Al 
  0.7381751  0.4985434  0.2671489

 Al 
  0.7412690  0.7721313  0.0040629

 Al 
  0.4977043  0.9914212  0.4885451

 Al 
  0.5000433  0.2452886  0.7336988

 Al 
  0.7467464  0.0029961  0.7441092

 Al 
  0.7462824  0.2618138  0.5240397

 Al 
  0.5104624  0.4971152  0.5038179

 Al 
  0.4995409  0.7391689  0.7513081

 Al 
  0.7442627  0.5064749  0.7551730

 Al 
  0.7549354  0.7319489  0.5105762

