32 
charge = 0 
 Al 
  0.0055913  0.0121281  0.9899955

 Al 
  0.0064031  0.2383174  0.2495619

 Al 
  0.2516336  0.9984493  0.2374660

 Al 
  0.2527350  0.2621368  0.9974259

 Al 
  0.4975694  0.9972786  0.0090849

 Al 
  0.5010878  0.2549502  0.2456871

 Al 
  0.7651626  0.0182961  0.2672813

 Al 
  0.7513700  0.2455782  0.9958146

 Al 
  0.9950609  0.5033031  0.0029145

 Al 
  0.9850243  0.7588944  0.2676773

 Al 
  0.2515767  0.5058438  0.2607346

 Al 
  0.2555616  0.7321915  0.9919002

 Al 
  0.9854116  0.0140872  0.5133409

 Al 
  0.0060368  0.2637939  0.7426984

 Al 
  0.2628669  0.9835800  0.7403148

 Al 
  0.2478516  0.2349413  0.4980855

 Al 
  0.9866356  0.4986610  0.4867296

 Al 
  0.0066148  0.7377370  0.7588065

 Al 
  0.2442713  0.5020123  0.7391986

 Al 
  0.2447193  0.7533439  0.4926835

 Al 
  0.5081419  0.4995446  0.9881330

 Al 
  0.5054676  0.7487006  0.2394399

 Al 
  0.7444409  0.4964569  0.2612321

 Al 
  0.7474531  0.7727315  0.0054416

 Al 
  0.4984481  0.9864239  0.4930313

 Al 
  0.4979036  0.2474605  0.7382246

 Al 
  0.7451723  0.0023353  0.7429360

 Al 
  0.7424496  0.2609487  0.5217452

 Al 
  0.5038043  0.4915809  0.5054502

 Al 
  0.4988986  0.7379202  0.7518056

 Al 
  0.7507797  0.5044651  0.7531224

 Al 
  0.7538562  0.7359091  0.5120365

