32 
charge = 0 
 Al 
  0.0054737  0.0140302  0.9911836

 Al 
  0.0076011  0.2350923  0.2493268

 Al 
  0.2480892  0.9934471  0.2333894

 Al 
  0.2527783  0.2636318  0.9958876

 Al 
  0.4958109  0.0017338  0.0074749

 Al 
  0.5016472  0.2557621  0.2466066

 Al 
  0.7676514  0.0231362  0.2706091

 Al 
  0.7512957  0.2460064  0.9922256

 Al 
  0.9962242  0.5051247  0.0024009

 Al 
  0.9834550  0.7591617  0.2645723

 Al 
  0.2542052  0.5077558  0.2646379

 Al 
  0.2550975  0.7339909  0.9938481

 Al 
  0.9889251  0.0150747  0.5150686

 Al 
  0.0047423  0.2671229  0.7443877

 Al 
  0.2619474  0.9797560  0.7377952

 Al 
  0.2503366  0.2347755  0.4994802

 Al 
  0.9829216  0.4975373  0.4855341

 Al 
  0.0090986  0.7384164  0.7587186

 Al 
  0.2430412  0.4989233  0.7395290

 Al 
  0.2439916  0.7538439  0.4931105

 Al 
  0.5071878  0.4965695  0.9919695

 Al 
  0.5026249  0.7483998  0.2376726

 Al 
  0.7483528  0.4952453  0.2562447

 Al 
  0.7522177  0.7719024  0.0059873

 Al 
  0.4994951  0.9840194  0.4957255

 Al 
  0.4960287  0.2482909  0.7422962

 Al 
  0.7439805  0.0015965  0.7430263

 Al 
  0.7409052  0.2595107  0.5186352

 Al 
  0.4986102  0.4892926  0.5059972

 Al 
  0.4988998  0.7380204  0.7513923

 Al 
  0.7551520  0.5031001  0.7525358

 Al 
  0.7522103  0.7397307  0.5127296

