32 
charge = 0 
 Al 
  0.0056235  0.0114549  0.9895797

 Al 
  0.0060616  0.2395290  0.2496399

 Al 
  0.2526892  0.9999406  0.2388013

 Al 
  0.2527387  0.2616405  0.9978664

 Al 
  0.4981437  0.9960249  0.0094377

 Al 
  0.5008960  0.2546470  0.2454520

 Al 
  0.7641466  0.0167158  0.2661551

 Al 
  0.7513762  0.2454656  0.9969284

 Al 
  0.9946871  0.5027363  0.0031781

 Al 
  0.9856170  0.7587867  0.2684694

 Al 
  0.2507463  0.5051953  0.2594636

 Al 
  0.2556581  0.7317336  0.9914101

 Al 
  0.9845082  0.0136466  0.5128385

 Al 
  0.0063821  0.2626801  0.7422702

 Al 
  0.2630402  0.9848869  0.7411947

 Al 
  0.2471301  0.2350676  0.4976288

 Al 
  0.9879758  0.4989592  0.4872209

 Al 
  0.0057609  0.7376801  0.7587162

 Al 
  0.2447255  0.5028922  0.7390525

 Al 
  0.2449396  0.7531409  0.4925796

 Al 
  0.5084191  0.5003997  0.9870613

 Al 
  0.5063165  0.7487352  0.2401292

 Al 
  0.7432454  0.4968417  0.2625848

 Al 
  0.7461029  0.7728553  0.0052411

 Al 
  0.4981981  0.9872370  0.4921897

 Al 
  0.4984097  0.2471375  0.7371479

 Al 
  0.7455163  0.0025184  0.7430140

 Al 
  0.7430090  0.2612717  0.5224915

 Al 
  0.5052683  0.4924212  0.5052275

 Al 
  0.4989518  0.7379758  0.7518613

 Al 
  0.7494802  0.5048772  0.7533810

 Al 
  0.7542374  0.7349067  0.5117890

