32 
charge = 0 
 Al 
  0.0055579  0.0127828  0.9904077

 Al 
  0.0067682  0.2371615  0.2494839

 Al 
  0.2505099  0.9968653  0.2361121

 Al 
  0.2527424  0.2626355  0.9969432

 Al 
  0.4969841  0.9986548  0.0086394

 Al 
  0.5012796  0.2552411  0.2459594

 Al 
  0.7660957  0.0199037  0.2684050

 Al 
  0.7513514  0.2457057  0.9946550

 Al 
  0.9954421  0.5038946  0.0026929

 Al 
  0.9844636  0.7589934  0.2667591

 Al 
  0.2524355  0.5064947  0.2620266

 Al 
  0.2554341  0.7327212  0.9924719

 Al 
  0.9864512  0.0144745  0.5138805

 Al 
  0.0056507  0.2649139  0.7431946

 Al 
  0.2626269  0.9822818  0.7394473

 Al 
  0.2486288  0.2348498  0.4985496

 Al 
  0.9853386  0.4983231  0.4862829

 Al 
  0.0074625  0.7378768  0.7588411

 Al 
  0.2438357  0.5010532  0.7393273

 Al 
  0.2444904  0.7535308  0.4928073

 Al 
  0.5078437  0.4986152  0.9893124

 Al 
  0.5045629  0.7486313  0.2387988

 Al 
  0.7456970  0.4960596  0.2597211

 Al 
  0.7489307  0.7725298  0.0056334

 Al 
  0.4987488  0.9856133  0.4939075

 Al 
  0.4973355  0.2477637  0.7394461

 Al 
  0.7447973  0.0021187  0.7429112

 Al 
  0.7419125  0.2605453  0.5208492

 Al 
  0.5021967  0.4907740  0.5056532

 Al 
  0.4988713  0.7379115  0.7517054

 Al 
  0.7521657  0.5040283  0.7528959

 Al 
  0.7533897  0.7370514  0.5122791

