32 
charge = 0 
 Al 
  0.0054973  0.0137283  0.9909992

 Al 
  0.0073771  0.2355713  0.2493664

 Al 
  0.2487105  0.9943270  0.2340676

 Al 
  0.2527672  0.2633855  0.9961598

 Al 
  0.4961017  0.0009282  0.0077979

 Al 
  0.5015593  0.2556408  0.2464333

 Al 
  0.7673061  0.0223331  0.2700683

 Al 
  0.7513106  0.2459259  0.9928432

 Al 
  0.9960274  0.5048141  0.0024528

 Al 
  0.9836914  0.7591233  0.2651589

 Al 
  0.2537610  0.5074489  0.2639869

 Al 
  0.2551903  0.7336493  0.9934768

 Al 
  0.9882605  0.0149485  0.5147579

 Al 
  0.0049874  0.2665796  0.7440671

 Al 
  0.2621417  0.9803735  0.7381937

 Al 
  0.2498936  0.2347805  0.4992500

 Al 
  0.9834983  0.4977452  0.4857024

 Al 
  0.0087001  0.7382481  0.7587743

 Al 
  0.2432281  0.4994777  0.7394857

 Al 
  0.2441216  0.7537746  0.4930288

 Al 
  0.5073585  0.4971004  0.9912727

 Al 
  0.5031211  0.7484667  0.2379338

 Al 
  0.7476759  0.4954495  0.2571667

 Al 
  0.7513613  0.7720843  0.0059032

 Al 
  0.4992921  0.9844117  0.4952663

 Al 
  0.4963739  0.2481709  0.7415363

 Al 
  0.7441909  0.0017375  0.7429768

 Al 
  0.7411477  0.2597965  0.5192379

 Al 
  0.4995471  0.4896441  0.5059193

 Al 
  0.4988812  0.7379796  0.7514826

 Al 
  0.7543847  0.5033365  0.7526137

 Al 
  0.7525333  0.7390166  0.5126231

