32 
charge = 0 
 Al 
  0.0054180  0.0146107  0.9915264

 Al 
  0.0080800  0.2342310  0.2492463

 Al 
  0.2468269  0.9916502  0.2320566

 Al 
  0.2528018  0.2641169  0.9953381

 Al 
  0.4952428  0.0033959  0.0067670

 Al 
  0.5018093  0.2559799  0.2469754

 Al 
  0.7682392  0.0247067  0.2716549

 Al 
  0.7512685  0.2461784  0.9909893

 Al 
  0.9966215  0.5057435  0.0023427

 Al 
  0.9830194  0.7592297  0.2633335

 Al 
  0.2550839  0.5083412  0.2659200

 Al 
  0.2548983  0.7347161  0.9946364

 Al 
  0.9903334  0.0152752  0.5157133

 Al 
  0.0042226  0.2681724  0.7450696

 Al 
  0.2615143  0.9785654  0.7370427

 Al 
  0.2512512  0.2347941  0.4999319

 Al 
  0.9818351  0.4971041  0.4852408

 Al 
  0.0098621  0.7388149  0.7585528

 Al 
  0.2427009  0.4977835  0.7395995

 Al 
  0.2437231  0.7539577  0.4932813

 Al 
  0.5068351  0.4954829  0.9934100

 Al 
  0.5016249  0.7482501  0.2371974

 Al 
  0.7497203  0.4948369  0.2543117

 Al 
  0.7539751  0.7714915  0.0061445

 Al 
  0.4999270  0.9832545  0.4966425

 Al 
  0.4953096  0.2485087  0.7438914

 Al 
  0.7435548  0.0012945  0.7431699

 Al 
  0.7404361  0.2588931  0.5173494

 Al 
  0.4966809  0.4886330  0.5061383

 Al 
  0.4989555  0.7381244  0.7511980

 Al 
  0.7567076  0.5026298  0.7524033

 Al 
  0.7515210  0.7412306  0.5129226

