32 
charge = 0 
 Al 
  0.0049515  0.0167764  0.9924125

 Al 
  0.0111665  0.2324774  0.2488664

 Al 
  0.2409596  0.9829848  0.2265717

 Al 
  0.2527808  0.2660462  0.9929471

 Al 
  0.4929261  0.0116851  0.0025048

 Al 
  0.5021769  0.2564477  0.2490768

 Al 
  0.7688803  0.0309044  0.2756089

 Al 
  0.7512908  0.2471944  0.9854252

 Al 
  0.9985892  0.5084303  0.0030085

 Al 
  0.9817818  0.7593547  0.2566457

 Al 
  0.2586295  0.5101975  0.2711512

 Al 
  0.2538513  0.7386973  0.9988998

 Al 
  0.9980843  0.0151552  0.5190498

 Al 
  0.0012759  0.2720459  0.7488058

 Al 
  0.2588164  0.9741646  0.7346815

 Al 
  0.2558636  0.2353782  0.5017512

 Al 
  0.9782709  0.4949012  0.4846876

 Al 
  0.0125996  0.7418185  0.7567286

 Al 
  0.2418259  0.4922491  0.7396676

 Al 
  0.2422368  0.7539949  0.4941711

 Al 
  0.5050183  0.4903235  0.0006881

 Al 
  0.4971462  0.7475026  0.2358695

 Al 
  0.7561074  0.4929805  0.2438407

 Al 
  0.7624734  0.7688530  0.0065257

 Al 
  0.5022128  0.9802621  0.5006114

 Al 
  0.4916056  0.2490904  0.7523910

 Al 
  0.7416539  0.9995681  0.7446488

 Al 
  0.7384573  0.2553871  0.5102161

 Al 
  0.4871603  0.4864153  0.5066606

 Al 
  0.4995768  0.7387815  0.7503379

 Al 
  0.7638520  0.5007029  0.7522363

 Al 
  0.7477786  0.7492315  0.5133125

