32 
charge = 0 
 Al 
  0.0044924  0.0173717  0.9921316

 Al 
  0.0136132  0.2336369  0.2487352

 Al 
  0.2382691  0.9787523  0.2246819

 Al 
  0.2524442  0.2666254  0.9921588

 Al 
  0.4920350  0.0158928  0.9997711

 Al 
  0.5019504  0.2561482  0.2504393

 Al 
  0.7675325  0.0326915  0.2766076

 Al 
  0.7515061  0.2478924  0.9830132

 Al 
  0.9999084  0.5095329  0.0040617

 Al 
  0.9818796  0.7592817  0.2528773

 Al 
  0.2595701  0.5101592  0.2728033

 Al 
  0.2532696  0.7409547  0.0011794

 Al 
  0.0026595  0.0142790  0.5208245

 Al 
  0.9995607  0.2728330  0.7509418

 Al 
  0.2571024  0.9731560  0.7346777

 Al 
  0.2582805  0.2359091  0.5024058

 Al 
  0.9777561  0.4937614  0.4850243

 Al 
  0.0132011  0.7441488  0.7550134

 Al 
  0.2419732  0.4896057  0.7395624

 Al 
  0.2412442  0.7535865  0.4946376

 Al 
  0.5039850  0.4880303  0.0045307

 Al 
  0.4953839  0.7472563  0.2358893

 Al 
  0.7591456  0.4920561  0.2376244

 Al 
  0.7665165  0.7670784  0.0062472

 Al 
  0.5032919  0.9793958  0.5022066

 Al 
  0.4896577  0.2491151  0.7570739

 Al 
  0.7409571  0.9984840  0.7460596

 Al 
  0.7374920  0.2534714  0.5061643

 Al 
  0.4825343  0.4859772  0.5070133

 Al 
  0.5001423  0.7390166  0.7502698

 Al 
  0.7668457  0.5002166  0.7524293

 Al 
  0.7457985  0.7536830  0.5129449

