32 
charge = 0 
 Al 
  0.0050134  0.0166254  0.9923977

 Al 
  0.0108052  0.2324427  0.2488973

 Al 
  0.2414757  0.9837756  0.2269962

 Al 
  0.2528056  0.2659039  0.9931352

 Al 
  0.4931093  0.0109128  0.0029578

 Al 
  0.5021793  0.2564539  0.2488565

 Al 
  0.7689879  0.0304552  0.2753354

 Al 
  0.7512710  0.2470843  0.9859017

 Al 
  0.9983899  0.5082075  0.0028749

 Al 
  0.9818276  0.7593572  0.2573053

 Al 
  0.2583746  0.5101134  0.2707564

 Al 
  0.2539515  0.7383013  0.9984852

 Al 
  0.9973034  0.0152480  0.5187293

 Al 
  0.0015742  0.2717947  0.7484332

 Al 
  0.2591035  0.9744579  0.7347904

 Al 
  0.2554279  0.2352940  0.5016113

 Al 
  0.9784714  0.4951079  0.4846765

 Al 
  0.0124227  0.7414621  0.7569749

 Al 
  0.2418469  0.4927504  0.7396787

 Al 
  0.2423927  0.7540332  0.4940857

 Al 
  0.5051953  0.4907764  0.0000012

 Al 
  0.4975187  0.7475632  0.2359227

 Al 
  0.7555381  0.4931476  0.2448938

 Al 
  0.7617073  0.7691401  0.0065294

 Al 
  0.5019999  0.9804787  0.5002846

 Al 
  0.4919571  0.2490669  0.7515618

 Al 
  0.7418086  0.9997475  0.7444508

 Al 
  0.7386293  0.2557349  0.5109277

 Al 
  0.4880328  0.4865514  0.5066123

 Al 
  0.4994951  0.7387233  0.7503911

 Al 
  0.7632432  0.5008403  0.7522214

 Al 
  0.7481399  0.7484481  0.5133261

