32 
charge = 0 
 Al 
  0.0039726  0.0174744  0.9914101

 Al 
  0.0161056  0.2358324  0.2487204

 Al 
  0.2364784  0.9758502  0.2239716

 Al 
  0.2518180  0.2667504  0.9919806

 Al 
  0.4915140  0.0189001  0.9974630

 Al 
  0.5014702  0.2555282  0.2516695

 Al 
  0.7655772  0.0329810  0.2765333

 Al 
  0.7518229  0.2485545  0.9815207

 Al 
  0.0013564  0.5101827  0.0052225

 Al 
  0.9824551  0.7591567  0.2499418

 Al 
  0.2595218  0.5093795  0.2732130

 Al 
  0.2527796  0.7426736  0.0027511

 Al 
  0.0064118  0.0131528  0.5220794

 Al 
  0.9982303  0.2725014  0.7526311

 Al 
  0.2557175  0.9733120  0.7355713

 Al 
  0.2600762  0.2363113  0.5027536

 Al 
  0.9781484  0.4929372  0.4856183

 Al 
  0.0131083  0.7463653  0.7532635

 Al 
  0.2424063  0.4878620  0.7394980

 Al 
  0.2403124  0.7529850  0.4949842

 Al 
  0.5030976  0.4866727  0.0074736

 Al 
  0.4945547  0.7472291  0.2363200

 Al 
  0.7612730  0.4913210  0.2324340

 Al 
  0.7691983  0.7655166  0.0055975

 Al 
  0.5038562  0.9792646  0.5031385

 Al 
  0.4882345  0.2490458  0.7606158

 Al 
  0.7406948  0.9975583  0.7475855

 Al 
  0.7367259  0.2521707  0.5030642

 Al 
  0.4794639  0.4860898  0.5074712

 Al 
  0.5007079  0.7390129  0.7506336

 Al 
  0.7684830  0.5003044  0.7526793

 Al 
  0.7444273  0.7571234  0.5121888

