32 
charge = 0 
 Al 
  0.0035790  0.0173618  0.9907505

 Al 
  0.0178704  0.2377333  0.2487550

 Al 
  0.2355589  0.9743577  0.2239493

 Al 
  0.2512277  0.2666588  0.9921118

 Al 
  0.4912727  0.0205250  0.9960435

 Al 
  0.5010247  0.2549614  0.2524863

 Al 
  0.7640426  0.0325937  0.2760210

 Al 
  0.7520803  0.2490137  0.9808252

 Al 
  0.0025061  0.5104661  0.0060331

 Al 
  0.9830429  0.7590503  0.2482204

 Al 
  0.2590825  0.5085355  0.2729976

 Al 
  0.2524627  0.7436464  0.0035283

 Al 
  0.0087137  0.0122902  0.5227192

 Al 
  0.9974618  0.2718207  0.7536421

 Al 
  0.2549082  0.9738751  0.7365650

 Al 
  0.2610960  0.2365056  0.5028971

 Al 
  0.9787337  0.4924868  0.4861133

 Al 
  0.0127815  0.7478615  0.7520346

 Al 
  0.2427838  0.4869994  0.7395129

 Al 
  0.2396800  0.7524863  0.4951859

 Al 
  0.5025085  0.4860935  0.0092099

 Al 
  0.4943505  0.7473034  0.2367680

 Al 
  0.7624338  0.4908544  0.2291867

 Al 
  0.7705398  0.7645030  0.0049651

 Al 
  0.5040023  0.9794726  0.5035679

 Al 
  0.4874524  0.2489988  0.7626244

 Al 
  0.7406849  0.9969791  0.7487092

 Al 
  0.7362556  0.2515457  0.5012920

 Al 
  0.4779454  0.4863781  0.5078622

 Al 
  0.5010940  0.7389028  0.7510891

 Al 
  0.7690944  0.5006039  0.7528563

 Al 
  0.7437293  0.7591357  0.5114784

