32 
charge = 0 
 Al 
  0.0031100  0.0171068  0.9899077

 Al 
  0.0198852  0.2401304  0.2488256

 Al 
  0.2347384  0.9730558  0.2242736

 Al 
  0.2504270  0.2664237  0.9924546

 Al 
  0.4910747  0.0220261  0.9945881

 Al 
  0.5004307  0.2542176  0.2533909

 Al 
  0.7622172  0.0317311  0.2750743

 Al 
  0.7523984  0.2495372  0.9802782

 Al 
  0.0039664  0.5106666  0.0069279

 Al 
  0.9838449  0.7589154  0.2464952

 Al 
  0.2582880  0.5073610  0.2723863

 Al 
  0.2521138  0.7445820  0.0041545

 Al 
  0.0110997  0.0112668  0.5232526

 Al 
  0.9967081  0.2707230  0.7546668

 Al 
  0.2541236  0.9748379  0.7379721

 Al 
  0.2620885  0.2366442  0.5030036

 Al 
  0.9796025  0.4920647  0.4867247

 Al 
  0.0122259  0.7495161  0.7506336

 Al 
  0.2432380  0.4862754  0.7395995

 Al 
  0.2389758  0.7518576  0.4953950

 Al 
  0.5018403  0.4857012  0.0109722

 Al 
  0.4943864  0.7474531  0.2373769

 Al 
  0.7635389  0.4903433  0.2257586

 Al 
  0.7716833  0.7634003  0.0041013

 Al 
  0.5039577  0.9799329  0.5039218

 Al 
  0.4867197  0.2489716  0.7645599

 Al 
  0.7408000  0.9963752  0.7500285

 Al 
  0.7357680  0.2510581  0.4995693

 Al 
  0.4766757  0.4868608  0.5083659

 Al 
  0.5015197  0.7386986  0.7517660

 Al 
  0.7694136  0.5011212  0.7530518

 Al 
  0.7431365  0.7611455  0.5105230

