32 
charge = 0 
 Al 
  0.0021472  0.0163210  0.9880909

 Al 
  0.0238392  0.2453158  0.2490174

 Al 
  0.2336110  0.9714222  0.2257277

 Al 
  0.2485211  0.2656341  0.9935647

 Al 
  0.4908297  0.0241708  0.9921464

 Al 
  0.4990434  0.2525061  0.2551148

 Al 
  0.7585169  0.0290889  0.2723108

 Al 
  0.7530642  0.2505878  0.9797448

 Al 
  0.0072979  0.5107878  0.0085441

 Al 
  0.9857260  0.7585998  0.2436092

 Al 
  0.2560752  0.5045815  0.2703641

 Al 
  0.2514479  0.7460398  0.0047609

 Al 
  0.0152802  0.0091901  0.5237921

 Al 
  0.9955015  0.2678457  0.7564019

 Al 
  0.2529194  0.9774516  0.7414187

 Al 
  0.2636726  0.2367049  0.5031211

 Al 
  0.9817398  0.4914385  0.4880451

 Al 
  0.0107334  0.7526546  0.7478689

 Al 
  0.2441216  0.4854252  0.7399955

 Al 
  0.2376392  0.7504616  0.4957799

 Al 
  0.5004876  0.4855143  0.0140080

 Al 
  0.4950460  0.7478912  0.2388013

 Al 
  0.7652678  0.4893495  0.2195881

 Al 
  0.7730843  0.7613051  0.0020370

 Al 
  0.5033328  0.9813598  0.5043933

 Al 
  0.4856443  0.2490434  0.7675672

 Al 
  0.7412987  0.9953233  0.7527103

 Al 
  0.7349339  0.2506312  0.4968294

 Al 
  0.4752005  0.4881850  0.5094847

 Al 
  0.5023043  0.7381305  0.7534837

 Al 
  0.7692342  0.5025321  0.7534058

 Al 
  0.7424373  0.7645067  0.5082694

