32 
charge = 0 
 Al 
  0.0008205  0.0147901  0.9855329

 Al 
  0.0290827  0.2529046  0.2493862

 Al 
  0.2328375  0.9707712  0.2290567

 Al 
  0.2454000  0.2639337  0.9957193

 Al 
  0.4906948  0.0257289  0.9896614

 Al 
  0.4967514  0.2497389  0.2573561

 Al 
  0.7534008  0.0240458  0.2669509

 Al 
  0.7539949  0.2520420  0.9798661

 Al 
  0.0127370  0.5105329  0.0102681

 Al 
  0.9887382  0.7580429  0.2404510

 Al 
  0.2521558  0.5001683  0.2663915

 Al 
  0.2505841  0.7474890  0.0045171

 Al 
  0.0201512  0.0063772  0.5235174

 Al 
  0.9943097  0.2628583  0.7582644

 Al 
  0.2518724  0.9821457  0.7472959

 Al 
  0.2652257  0.2364326  0.5032139

 Al 
  0.9852755  0.4909151  0.4900809

 Al 
  0.0080937  0.7566568  0.7441278

 Al 
  0.2451549  0.4851604  0.7410178

 Al 
  0.2359586  0.7482365  0.4963059

 Al 
  0.4984766  0.4861504  0.0175202

 Al 
  0.4968244  0.7486981  0.2411069

 Al 
  0.7669818  0.4879771  0.2121194

 Al 
  0.7736671  0.7584761  0.9985941

 Al 
  0.5015061  0.9841456  0.5048364

 Al 
  0.4847941  0.2495075  0.7703443

 Al 
  0.7423568  0.9941377  0.7564378

 Al 
  0.7340788  0.2508985  0.4940820

 Al 
  0.4747909  0.4906527  0.5111616

 Al 
  0.5032362  0.7371566  0.7564663

 Al 
  0.7678197  0.5050344  0.7538080

 Al 
  0.7422281  0.7681897  0.5045419

