32 
charge = 0 
 Al 
  0.0023576  0.0165165  0.9884919

 Al 
  0.0229939  0.2441637  0.2489716

 Al 
  0.2338090  0.9716833  0.2253379

 Al 
  0.2489629  0.2658371  0.9932862

 Al 
  0.4908705  0.0237872  0.9926278

 Al 
  0.4993639  0.2528984  0.2547498

 Al 
  0.7593176  0.0297436  0.2729939

 Al 
  0.7529182  0.2503601  0.9798092

 Al 
  0.0065331  0.5107866  0.0082162

 Al 
  0.9852940  0.7586728  0.2441822

 Al 
  0.2566086  0.5052200  0.2708740

 Al 
  0.2515890  0.7457613  0.0046928

 Al 
  0.0144300  0.0096394  0.5237290

 Al 
  0.9957354  0.2685300  0.7560566

 Al 
  0.2531446  0.9768242  0.7406119

 Al 
  0.2633682  0.2367123  0.5031026

 Al 
  0.9812423  0.4915536  0.4877506

 Al 
  0.0110910  0.7519937  0.7484629

 Al 
  0.2439372  0.4855539  0.7398854

 Al 
  0.2379202  0.7507784  0.4956982

 Al 
  0.5007846  0.4855007  0.0133941

 Al 
  0.4948505  0.7477848  0.2384746

 Al 
  0.7649361  0.4895636  0.2208604

 Al 
  0.7728615  0.7617507  0.0025172

 Al 
  0.5035221  0.9810034  0.5043092

 Al 
  0.4858398  0.2490124  0.7669979

 Al 
  0.7411675  0.9955349  0.7521274

 Al 
  0.7350997  0.2506720  0.4973578

 Al 
  0.4754220  0.4878632  0.5092335

 Al 
  0.5021422  0.7382667  0.7530778

 Al 
  0.7693456  0.5021930  0.7533328

 Al 
  0.7425437  0.7638397  0.5087904

