32 
charge = 0 
 Al 
  0.0027523  0.0168494  0.9892394

 Al 
  0.0213801  0.2420276  0.2488911

 Al 
  0.2342483  0.9723095  0.2247079

 Al 
  0.2497550  0.2661725  0.9928147

 Al 
  0.4909633  0.0229469  0.9936068

 Al 
  0.4999394  0.2536063  0.2540481

 Al 
  0.7608324  0.0308623  0.2741609

 Al 
  0.7526447  0.2499307  0.9800035

 Al 
  0.0051532  0.5107495  0.0075627

 Al 
  0.9845131  0.7588040  0.2453381

 Al 
  0.2575392  0.5063747  0.2717341

 Al 
  0.2518601  0.7451822  0.0044713

 Al 
  0.0127457  0.0104896  0.5235298

 Al 
  0.9962155  0.2697354  0.7553611

 Al 
  0.2536211  0.9757252  0.7391763

 Al 
  0.2627370  0.2366974  0.5030580

 Al 
  0.9803512  0.4917999  0.4872061

 Al 
  0.0117172  0.7507178  0.7495916

 Al 
  0.2435771  0.4858769  0.7397146

 Al 
  0.2384647  0.7513551  0.4955423

 Al 
  0.5013390  0.4855515  0.0121739

 Al 
  0.4945560  0.7475991  0.2378830

 Al 
  0.7642493  0.4899696  0.2233540

 Al 
  0.7723269  0.7626021  0.0033748

 Al 
  0.5038006  0.9803995  0.5041260

 Al 
  0.4862631  0.2489765  0.7658049

 Al 
  0.7409522  0.9959594  0.7510297

 Al 
  0.7354351  0.2508230  0.4984481

 Al 
  0.4759801  0.4873076  0.5087706

 Al 
  0.5018242  0.7385055  0.7523600

 Al 
  0.7694532  0.5016002  0.7531904

 Al 
  0.7428085  0.7624932  0.5097260

