32 
charge = 0 
 Al 
  0.0025593  0.0166922  0.9888743

 Al 
  0.0221722  0.2430659  0.2489295

 Al 
  0.2340218  0.9719803  0.2249975

 Al 
  0.2493738  0.2660165  0.9930362

 Al 
  0.4909151  0.0233788  0.9931154

 Al 
  0.4996621  0.2532647  0.2543946

 Al 
  0.7600911  0.0303351  0.2736102

 Al 
  0.7527783  0.2501411  0.9798958

 Al 
  0.0058178  0.5107742  0.0078882

 Al 
  0.9848894  0.7587409  0.2447602

 Al 
  0.2570974  0.5058178  0.2713306

 Al 
  0.2517264  0.7454755  0.0045951

 Al 
  0.0135847  0.0100725  0.5236412

 Al 
  0.9959730  0.2691599  0.7557089

 Al 
  0.2533785  0.9762475  0.7398644

 Al 
  0.2630550  0.2367098  0.5030815

 Al 
  0.9807794  0.4916749  0.4874697

 Al 
  0.0114190  0.7513465  0.7490372

 Al 
  0.2437553  0.4857049  0.7397926

 Al 
  0.2381961  0.7510767  0.4956190

 Al 
  0.5010680  0.4855131  0.0127815

 Al 
  0.4946871  0.7476870  0.2381689

 Al 
  0.7645970  0.4897703  0.2221165

 Al 
  0.7726090  0.7621838  0.0029627

 Al 
  0.5036768  0.9806841  0.5042201

 Al 
  0.4860477  0.2489901  0.7664088

 Al 
  0.7410512  0.9957477  0.7515668

 Al 
  0.7352668  0.2507363  0.4978986

 Al 
  0.4756831  0.4875712  0.5089958

 Al 
  0.5019826  0.7383917  0.7527028

 Al 
  0.7694186  0.5018823  0.7532610

 Al 
  0.7426674  0.7631664  0.5092768

