32 
charge = 0 
 Al 
  0.0004022  0.0141849  0.9847409

 Al 
  0.0306878  0.2553945  0.2495433

 Al 
  0.2327669  0.9709445  0.2304428

 Al 
  0.2442936  0.2632122  0.9965385

 Al 
  0.4906972  0.0258948  0.9891008

 Al 
  0.4959099  0.2487389  0.2580404

 Al 
  0.7517499  0.0221115  0.2648322

 Al 
  0.7542832  0.2525048  0.9800926

 Al 
  0.0147072  0.5103633  0.0106468

 Al 
  0.9897975  0.7578251  0.2396045

 Al 
  0.2507450  0.4986548  0.2648681

 Al 
  0.2503267  0.7478578  0.0041854

 Al 
  0.0215237  0.0055109  0.5231474

 Al 
  0.9940337  0.2610403  0.7587273

 Al 
  0.2516732  0.9839092  0.7494728

 Al 
  0.2655772  0.2362692  0.5032474

 Al 
  0.9865427  0.4908235  0.4908111

 Al 
  0.0071160  0.7578536  0.7429447

 Al 
  0.2454185  0.4852767  0.7414806

 Al 
  0.2354760  0.7474283  0.4964841

 Al 
  0.4977687  0.4865477  0.0185152

 Al 
  0.4975769  0.7490000  0.2419323

 Al 
  0.7673977  0.4875353  0.2099500

 Al 
  0.7735570  0.7575491  0.9973430

 Al 
  0.5006782  0.9852322  0.5049688

 Al 
  0.4846740  0.2497785  0.7709247

 Al 
  0.7427652  0.9938258  0.7576271

 Al 
  0.7338906  0.2511683  0.4934063

 Al 
  0.4750161  0.4916130  0.5117185

 Al 
  0.5034887  0.7368200  0.7575714

 Al 
  0.7671291  0.5059552  0.7539082

 Al 
  0.7423296  0.7691785  0.5031842

