32 
charge = 0 
 Al 
  0.0000248  0.0135600  0.9840441

 Al 
  0.0321061  0.2576890  0.2497166

 Al 
  0.2327966  0.9713059  0.2318833

 Al 
  0.2432305  0.2624412  0.9973504

 Al 
  0.4907269  0.0258688  0.9887233

 Al 
  0.4950745  0.2477551  0.2586468

 Al 
  0.7502190  0.0201723  0.2626615

 Al 
  0.7545394  0.2529256  0.9803945

 Al 
  0.0166403  0.5101666  0.0108831

 Al 
  0.9908136  0.7575986  0.2389015

 Al 
  0.2493924  0.4972328  0.2633496

 Al 
  0.2501040  0.7481635  0.0037535

 Al 
  0.0226944  0.0047411  0.5226437

 Al 
  0.9938308  0.2592619  0.7590750

 Al 
  0.2515531  0.9856666  0.7516348

 Al 
  0.2658222  0.2360886  0.5032882

 Al 
  0.9877778  0.4907764  0.4915351

 Al 
  0.0061532  0.7589030  0.7418655

 Al 
  0.2456166  0.4854834  0.7419831

 Al 
  0.2350688  0.7466252  0.4966573

 Al 
  0.4970732  0.4870081  0.0193679

 Al 
  0.4983528  0.7492983  0.2427355

 Al 
  0.7677194  0.4871294  0.2080714

 Al 
  0.7733083  0.7566754  0.9961190

 Al 
  0.4997896  0.9863311  0.5050975

 Al 
  0.4846493  0.2501040  0.7712985

 Al 
  0.7431674  0.9935783  0.7587100

 Al 
  0.7337694  0.2515012  0.4928791

 Al 
  0.4753997  0.4925920  0.5122370

 Al 
  0.5036929  0.7365056  0.7586667

 Al 
  0.7663829  0.5068549  0.7539825

 Al 
  0.7425066  0.7699965  0.5018440

