32 
charge = 0 
 Al 
  0.9993008  0.0119895  0.9828622

 Al 
  0.0345961  0.2621925  0.2502091

 Al 
  0.2332657  0.9728838  0.2354636

 Al 
  0.2409584  0.2604091  0.9991894

 Al 
  0.4909311  0.0250495  0.9885921

 Al 
  0.4931291  0.2455015  0.2597520

 Al 
  0.7470719  0.0156329  0.2573449

 Al 
  0.7549923  0.2537139  0.9813710

 Al 
  0.0209891  0.5096196  0.0108039

 Al 
  0.9930127  0.7570343  0.2377865

 Al 
  0.2465868  0.4943604  0.2598696

 Al 
  0.2497352  0.7486857  0.0023749

 Al 
  0.0246597  0.0033451  0.5209074

 Al 
  0.9936464  0.2552980  0.7594030

 Al 
  0.2515482  0.9897530  0.7566284

 Al 
  0.2659695  0.2356344  0.5034417

 Al 
  0.9905413  0.4908346  0.4932553

 Al 
  0.0039701  0.7607656  0.7397530

 Al 
  0.2458034  0.4863187  0.7433357

 Al 
  0.2344513  0.7447416  0.4970546

 Al 
  0.4954656  0.4883174  0.0208319

 Al 
  0.5002364  0.7499802  0.2445324

 Al 
  0.7681303  0.4863522  0.2048092

 Al 
  0.7722019  0.7548017  0.9933865

 Al 
  0.4974816  0.9889312  0.5054180

 Al 
  0.4849834  0.2511064  0.7713913

 Al 
  0.7440572  0.9932714  0.7607915

 Al 
  0.7337718  0.2524912  0.4921811

 Al 
  0.4768935  0.4949631  0.5132729

 Al 
  0.5039627  0.7358930  0.7611950

 Al 
  0.7644498  0.5088486  0.7540270

 Al 
  0.7432132  0.7712799  0.4987699

