32 
charge = 0 
 Al 
  0.9996956  0.0129288  0.9834686

 Al 
  0.0332929  0.2597186  0.2499035

 Al 
  0.2329204  0.9718343  0.2333350

 Al 
  0.2422467  0.2616418  0.9981263

 Al 
  0.4907851  0.0256621  0.9885340

 Al 
  0.4942664  0.2468120  0.2591629

 Al 
  0.7488392  0.0182875  0.2604982

 Al 
  0.7547547  0.2532882  0.9807547

 Al 
  0.0184780  0.5099537  0.0109660

 Al 
  0.9917603  0.7573709  0.2383496

 Al 
  0.2481560  0.4959532  0.2618880

 Al 
  0.2499233  0.7484085  0.0032437

 Al 
  0.0236436  0.0040889  0.5220224

 Al 
  0.9937045  0.2575788  0.7592990

 Al 
  0.2515074  0.9873670  0.7537201

 Al 
  0.2659584  0.2359017  0.5033389

 Al 
  0.9889473  0.4907727  0.4922417

 Al 
  0.0052324  0.7597805  0.7409163

 Al 
  0.2457440  0.4857705  0.7425127

 Al 
  0.2347508  0.7458455  0.4968219

 Al 
  0.4964049  0.4875130  0.0200671

 Al 
  0.4991250  0.7495842  0.2434954

 Al 
  0.7679484  0.4867742  0.2065195

 Al 
  0.7729395  0.7558685  0.9949582

 Al 
  0.4988701  0.9874066  0.5052250

 Al 
  0.4847173  0.2504765  0.7714717

 Al 
  0.7435486  0.9934026  0.7596555

 Al 
  0.7337186  0.2518786  0.4924991

 Al 
  0.4759183  0.4935610  0.5126986

 Al 
  0.5038426  0.7362272  0.7597223

 Al 
  0.7656106  0.5077051  0.7540246

 Al 
  0.7427504  0.7706376  0.5005581

