32 
charge = 0 
 Al 
  0.9991943  0.0116789  0.9827286

 Al 
  0.0349017  0.2628632  0.2503181

 Al 
  0.2334179  0.9732922  0.2361517

 Al 
  0.2405821  0.2599896  0.9995124

 Al 
  0.4909955  0.0247735  0.9886961

 Al 
  0.4927726  0.2450943  0.2599005

 Al 
  0.7465583  0.0148000  0.2563239

 Al 
  0.7550505  0.2538241  0.9815900

 Al 
  0.0217526  0.5095070  0.0106777

 Al 
  0.9933865  0.7569242  0.2376627

 Al 
  0.2461475  0.4939223  0.2592483

 Al 
  0.2496943  0.7487600  0.0020655

 Al 
  0.0248960  0.0031583  0.5204928

 Al 
  0.9936587  0.2546050  0.7593795

 Al 
  0.2515841  0.9905005  0.7575330

 Al 
  0.2659237  0.2355539  0.5034850

 Al 
  0.9910289  0.4908717  0.4935820

 Al 
  0.0035840  0.7610094  0.7394325

 Al 
  0.2457898  0.4865279  0.7436142

 Al 
  0.2343980  0.7443914  0.4971289

 Al 
  0.4951698  0.4885934  0.0210150

 Al 
  0.5005891  0.7501027  0.2448480

 Al 
  0.7681538  0.4862408  0.2043946

 Al 
  0.7719135  0.7544812  0.9929100

 Al 
  0.4970224  0.9894102  0.5054836

 Al 
  0.4851109  0.2513316  0.7712848

 Al 
  0.7442070  0.9932627  0.7610960

 Al 
  0.7338226  0.2527004  0.4921341

 Al 
  0.4772610  0.4954148  0.5134313

 Al 
  0.5039775  0.7358052  0.7616529

 Al 
  0.7640661  0.5091914  0.7540122

 Al 
  0.7433877  0.7714173  0.4982130

