32 
charge = 0 
 Al 
  0.9988379  0.0101307  0.9825578

 Al 
  0.0355156  0.2651329  0.2509183

 Al 
  0.2344302  0.9757079  0.2394337

 Al 
  0.2390785  0.2578103  0.0008960

 Al 
  0.4914509  0.0229283  0.9897753

 Al 
  0.4911341  0.2432466  0.2603188

 Al 
  0.7444706  0.0109797  0.2514009

 Al 
  0.7551891  0.2541310  0.9827533

 Al 
  0.0250545  0.5089389  0.0095268

 Al 
  0.9949545  0.7563821  0.2374264

 Al 
  0.2445931  0.4924113  0.2565319

 Al 
  0.2496411  0.7490446  0.0004294

 Al 
  0.0254294  0.0026249  0.5181476

 Al 
  0.9939273  0.2516064  0.7588622

 Al 
  0.2518786  0.9939335  0.7616145

 Al 
  0.2653718  0.2352470  0.5037832

 Al 
  0.9931860  0.4911551  0.4951648

 Al 
  0.0018935  0.7616752  0.7382679

 Al 
  0.2455076  0.4877345  0.7450473

 Al 
  0.2344624  0.7427504  0.4974803

 Al 
  0.4937949  0.4900252  0.0214729

 Al 
  0.5022214  0.7506460  0.2462353

 Al 
  0.7680387  0.4859178  0.2033427

 Al 
  0.7702020  0.7531038  0.9908816

 Al 
  0.4947837  0.9915970  0.5058351

 Al 
  0.4860230  0.2525630  0.7702676

 Al 
  0.7448208  0.9934620  0.7621145

 Al 
  0.7343015  0.2537535  0.4922529

 Al 
  0.4793599  0.4975744  0.5140043

 Al 
  0.5038674  0.7355341  0.7637345

 Al 
  0.7621863  0.5106331  0.7538290

 Al 
  0.7443963  0.7716190  0.4956908

