32 
charge = 0 
 Al 
  0.9987971  0.0098163  0.9826197

 Al 
  0.0354611  0.2653866  0.2510519

 Al 
  0.2346802  0.9762598  0.2400636

 Al 
  0.2388496  0.2573499  0.0011299

 Al 
  0.4915710  0.0224741  0.9900933

 Al 
  0.4908297  0.2429075  0.2603435

 Al 
  0.7441327  0.0102718  0.2504381

 Al 
  0.7551903  0.2541471  0.9829984

 Al 
  0.0256188  0.5088238  0.0091976

 Al 
  0.9952193  0.7562732  0.2374437

 Al 
  0.2444075  0.4922405  0.2560579

 Al 
  0.2496584  0.7490929  0.0000879

 Al 
  0.0254195  0.0025890  0.5176254

 Al 
  0.9940189  0.2510841  0.7586840

 Al 
  0.2519504  0.9945745  0.7623546

 Al 
  0.2651997  0.2352099  0.5038637

 Al 
  0.9935721  0.4912294  0.4954792

 Al 
  0.0015989  0.7617098  0.7381120

 Al 
  0.2454124  0.4880068  0.7453431

 Al 
  0.2345379  0.7424373  0.4975496

 Al 
  0.4935337  0.4903223  0.0214828

 Al 
  0.5025234  0.7507425  0.2464816

 Al 
  0.7679756  0.4858980  0.2033142

 Al 
  0.7698072  0.7528625  0.9905388

 Al 
  0.4943443  0.9919979  0.5059118

 Al 
  0.4862581  0.2528278  0.7699804

 Al 
  0.7449173  0.9935498  0.7622259

 Al 
  0.7344414  0.2539627  0.4923370

 Al 
  0.4798290  0.4979939  0.5140785

 Al 
  0.5038105  0.7355131  0.7641156

 Al 
  0.7618138  0.5108720  0.7537709

 Al 
  0.7446216  0.7715744  0.4952292

