32 
charge = 0 
 Al 
  0.9990186  0.0110601  0.9825627

 Al 
  0.0353275  0.2639807  0.2505458

 Al 
  0.2337743  0.9741869  0.2374957

 Al 
  0.2399064  0.2591394  0.0001114

 Al 
  0.4911502  0.0241250  0.9890203

 Al 
  0.4920895  0.2443208  0.2601294

 Al 
  0.7456351  0.0132073  0.2543240

 Al 
  0.7551334  0.2539936  0.9820430

 Al 
  0.0231746  0.5092805  0.0103188

 Al 
  0.9940684  0.7567064  0.2374969

 Al 
  0.2453987  0.4931847  0.2580887

 Al 
  0.2496448  0.7488862  0.0014269

 Al 
  0.0252327  0.0028687  0.5196092

 Al 
  0.9937268  0.2533191  0.7592508

 Al 
  0.2516843  0.9919286  0.7592495

 Al 
  0.2657665  0.2354104  0.5035852

 Al 
  0.9919447  0.4909670  0.4942218

 Al 
  0.0028612  0.7613806  0.7388842

 Al 
  0.2457180  0.4869784  0.7441797

 Al 
  0.2343584  0.7437157  0.4972712

 Al 
  0.4946005  0.4891565  0.0212861

 Al 
  0.5012673  0.7503329  0.2454396

 Al 
  0.7681501  0.4860663  0.2037795

 Al 
  0.7712811  0.7538909  0.9920313

 Al 
  0.4961165  0.9903247  0.5056185

 Al 
  0.4854240  0.2518056  0.7709680

 Al 
  0.7444805  0.9932949  0.7616009

 Al 
  0.7339699  0.2531224  0.4921155

 Al 
  0.4780506  0.4962947  0.5137023

 Al 
  0.5039676  0.7356641  0.7625254

 Al 
  0.7633087  0.5098213  0.7539602

 Al 
  0.7437664  0.7715893  0.4971561

