32 
charge = 0 
 Al 
  0.9989481  0.0107507  0.9825293

 Al 
  0.0354487  0.2644325  0.2506658

 Al 
  0.2339773  0.9746708  0.2381503

 Al 
  0.2396070  0.2587038  0.0003874

 Al 
  0.4912405  0.0237550  0.9892382

 Al 
  0.4917628  0.2439520  0.2602124

 Al 
  0.7452205  0.0124449  0.2533427

 Al 
  0.7551606  0.2540555  0.9822756

 Al 
  0.0238342  0.5091666  0.0100874

 Al 
  0.9943802  0.7565974  0.2374511

 Al 
  0.2450881  0.4928828  0.2575454

 Al 
  0.2496337  0.7489419  0.0010990

 Al 
  0.0253379  0.0027635  0.5191401

 Al 
  0.9937800  0.2527214  0.7591456

 Al 
  0.2517437  0.9926142  0.7600639

 Al 
  0.2656564  0.2353485  0.5036446

 Al 
  0.9923741  0.4910240  0.4945374

 Al 
  0.0025234  0.7615118  0.7386528

 Al 
  0.2456599  0.4872209  0.7444656

 Al 
  0.2343721  0.7433877  0.4973417

 Al 
  0.4943270  0.4894424  0.0213764

 Al 
  0.5015940  0.7504418  0.2457156

 Al 
  0.7681266  0.4860019  0.2035728

 Al 
  0.7709383  0.7536162  0.9916267

 Al 
  0.4956698  0.9907616  0.5056878

 Al 
  0.4856059  0.2520519  0.7707626

 Al 
  0.7446030  0.9933345  0.7618026

 Al 
  0.7340651  0.2533328  0.4921415

 Al 
  0.4784701  0.4967254  0.5138174

 Al 
  0.5039453  0.7356096  0.7629412

 Al 
  0.7629325  0.5101084  0.7539243

 Al 
  0.7439681  0.7716276  0.4966536

