32 
charge = 0 
 Al 
  0.9987154  0.0085120  0.9831815

 Al 
  0.0346678  0.2657888  0.2516422

 Al 
  0.2358423  0.9787053  0.2425412

 Al 
  0.2381503  0.2553723  0.0019393

 Al 
  0.4921563  0.0203789  0.9916823

 Al 
  0.4896639  0.2416155  0.2602681

 Al 
  0.7429805  0.0075689  0.2465670

 Al 
  0.7551198  0.2540604  0.9840231

 Al 
  0.0275865  0.5083585  0.0075442

 Al 
  0.9961611  0.7558277  0.2376875

 Al 
  0.2440659  0.4919670  0.2543500

 Al 
  0.2498119  0.7492872  0.9986746

 Al 
  0.0250396  0.0026484  0.5153371

 Al 
  0.9945027  0.2491894  0.7577273

 Al 
  0.2522647  0.9970509  0.7651230

 Al 
  0.2643013  0.2351579  0.5042671

 Al 
  0.9950176  0.4915846  0.4967650

 Al 
  0.0005383  0.7615700  0.7376962

 Al 
  0.2449260  0.4892060  0.7465769

 Al 
  0.2350490  0.7412158  0.4978318

 Al 
  0.4925115  0.4915660  0.0212737

 Al 
  0.5036607  0.7510891  0.2473838

 Al 
  0.7676167  0.4859735  0.2037436

 Al 
  0.7680474  0.7519690  0.9893471

 Al 
  0.4925981  0.9935090  0.5062546

 Al 
  0.4873707  0.2539552  0.7685894

 Al 
  0.7452218  0.9940609  0.7623942

 Al 
  0.7351455  0.2547844  0.4928358

 Al 
  0.4818846  0.4996782  0.5142604

 Al 
  0.5034726  0.7355279  0.7655586

 Al 
  0.7603039  0.5116752  0.7534602

 Al 
  0.7456067  0.7711499  0.4934731

