32 
charge = 0 
 Al 
  0.9987241  0.0088473  0.9829934

 Al 
  0.0349525  0.2657777  0.2514851

 Al 
  0.2355267  0.9780580  0.2419261

 Al 
  0.2382927  0.2558883  0.0017549

 Al 
  0.4919930  0.0209445  0.9912381

 Al 
  0.4899485  0.2419311  0.2603114

 Al 
  0.7432417  0.0082298  0.2475422

 Al 
  0.7551483  0.2541050  0.9837595

 Al 
  0.0271360  0.5084761  0.0080083

 Al 
  0.9959396  0.7559415  0.2376021

 Al 
  0.2440919  0.4919744  0.2547510

 Al 
  0.2497612  0.7492377  0.9990347

 Al 
  0.0251844  0.0026051  0.5159398

 Al 
  0.9943641  0.2496374  0.7580033

 Al 
  0.2521843  0.9964395  0.7644572

 Al 
  0.2645574  0.2351542  0.5041533

 Al 
  0.9946673  0.4914868  0.4964371

 Al 
  0.0007871  0.7616455  0.7377704

 Al 
  0.2450634  0.4888879  0.7462601

 Al 
  0.2348906  0.7415190  0.4977600

 Al 
  0.4927664  0.4912455  0.0213616

 Al 
  0.5033860  0.7510074  0.2471685

 Al 
  0.7677219  0.4859314  0.2035580

 Al 
  0.7685164  0.7521843  0.9896193

 Al 
  0.4930350  0.9931427  0.5061631

 Al 
  0.4870650  0.2536632  0.7689718

 Al 
  0.7451574  0.9939087  0.7623930

 Al 
  0.7349475  0.2545815  0.4926872

 Al 
  0.4813425  0.4992537  0.5142320

 Al 
  0.5035753  0.7355081  0.7652084

 Al 
  0.7606864  0.5114957  0.7535493

 Al 
  0.7453480  0.7712923  0.4939013

