32 
charge = 0 
 Al 
  0.9987129  0.0081692  0.9834018

 Al 
  0.0343250  0.2657443  0.2518044

 Al 
  0.2361752  0.9793773  0.2431575

 Al 
  0.2380291  0.2548389  0.0021138

 Al 
  0.4923308  0.0197849  0.9921576

 Al 
  0.4893817  0.2413036  0.2602062

 Al 
  0.7427367  0.0069155  0.2455831

 Al 
  0.7550839  0.2540010  0.9842929

 Al 
  0.0280098  0.5082397  0.0070454

 Al 
  0.9963739  0.7557114  0.2377890

 Al 
  0.2440783  0.4919992  0.2539652

 Al 
  0.2498713  0.7493379  0.9983095

 Al 
  0.0248626  0.0027103  0.5147134

 Al 
  0.9946525  0.2487538  0.7574266

 Al 
  0.2523452  0.9976585  0.7657752

 Al 
  0.2640228  0.2351740  0.5043909

 Al 
  0.9953616  0.4916873  0.4970992

 Al 
  0.0003007  0.7614697  0.7376405

 Al 
  0.2447800  0.4895352  0.7468999

 Al 
  0.2352285  0.7409138  0.4979048

 Al 
  0.4922566  0.4918915  0.0211598

 Al 
  0.5039280  0.7511670  0.2475942

 Al 
  0.7675004  0.4860304  0.2039812

 Al 
  0.7675598  0.7517586  0.9890909

 Al 
  0.4921613  0.9938679  0.5063499

 Al 
  0.4876937  0.2542535  0.7681847

 Al 
  0.7452775  0.9942292  0.7623694

 Al 
  0.7353596  0.2549874  0.4929979

 Al 
  0.4824452  0.5001052  0.5142790

 Al 
  0.5033587  0.7355576  0.7659039

 Al 
  0.7599166  0.5118398  0.7533612

 Al 
  0.7458752  0.7709853  0.4930511

