32 
charge = 0 
 Al 
  0.9988157  0.0059056  0.9854091

 Al 
  0.0310306  0.2643149  0.2529231

 Al 
  0.2385538  0.9839340  0.2468838

 Al 
  0.2377642  0.2512425  0.0029602

 Al 
  0.4936501  0.0156242  0.9956413

 Al 
  0.4877382  0.2394881  0.2595107

 Al 
  0.7415846  0.0031100  0.2394300

 Al 
  0.7547312  0.2533315  0.9860452

 Al 
  0.0299738  0.5074848  0.0033365

 Al 
  0.9975645  0.7549502  0.2386862

 Al 
  0.2449495  0.4930127  0.2519566

 Al 
  0.2503874  0.7497092  0.9960460

 Al 
  0.0231263  0.0034132  0.5104945

 Al 
  0.9957898  0.2463789  0.7551074

 Al 
  0.2528155  0.0013019  0.7693815

 Al 
  0.2618794  0.2355762  0.5053562

 Al 
  0.9973615  0.4924373  0.4992525

 Al 
  0.9990854  0.7603794  0.7376615

 Al 
  0.2437515  0.4917900  0.7489864

 Al 
  0.2367531  0.7391231  0.4983862

 Al 
  0.4906911  0.4940040  0.0199693

 Al 
  0.5053958  0.7515618  0.2487624

 Al 
  0.7666093  0.4867234  0.2064663

 Al 
  0.7641874  0.7505495  0.9878731

 Al 
  0.4895191  0.9959000  0.5070306

 Al 
  0.4900401  0.2561853  0.7653198

 Al 
  0.7454594  0.9956104  0.7616554

 Al 
  0.7369784  0.2561470  0.4942441

 Al 
  0.4862692  0.5027932  0.5141726

 Al 
  0.5024071  0.7359648  0.7678655

 Al 
  0.7574613  0.5125340  0.7525803

 Al 
  0.7476746  0.7695213  0.4906032

