32 
charge = 0 
 Al 
  0.9987166  0.0078164  0.9836530

 Al 
  0.0339241  0.2656428  0.2519751

 Al 
  0.2365254  0.9800740  0.2437738

 Al 
  0.2379301  0.2542869  0.0022771

 Al 
  0.4925189  0.0191637  0.9926637

 Al 
  0.4891020  0.2409955  0.2601294

 Al 
  0.7425078  0.0062683  0.2445881

 Al 
  0.7550406  0.2539268  0.9845676

 Al 
  0.0284058  0.5081184  0.0065133

 Al 
  0.9965819  0.7555925  0.2379041

 Al 
  0.2441302  0.4920709  0.2535951

 Al 
  0.2499381  0.7493924  0.9979407

 Al 
  0.0246535  0.0027882  0.5140674

 Al 
  0.9948134  0.2483318  0.7571011

 Al 
  0.2524269  0.9982649  0.7664113

 Al 
  0.2637233  0.2352025  0.5045245

 Al 
  0.9957007  0.4917962  0.4974407

 Al 
  0.0000730  0.7613447  0.7376021

 Al 
  0.2446253  0.4898780  0.7472291

 Al 
  0.2354302  0.7406131  0.4979803

 Al 
  0.4920004  0.4922256  0.0210237

 Al 
  0.5041904  0.7512413  0.2477996

 Al 
  0.7673754  0.4861046  0.2042696

 Al 
  0.7670511  0.7515519  0.9888496

 Al 
  0.4917232  0.9942206  0.5064502

 Al 
  0.4880365  0.2545592  0.7677590

 Al 
  0.7453270  0.9944149  0.7623175

 Al 
  0.7355898  0.2551866  0.4931736

 Al 
  0.4830281  0.5005383  0.5142877

 Al 
  0.5032325  0.7355972  0.7662430

 Al 
  0.7595243  0.5119920  0.7532548

 Al 
  0.7461512  0.7707972  0.4926340

