32 
charge = 0 
 Al 
  0.9988478  0.0054911  0.9858596

 Al 
  0.0302782  0.2638941  0.2531310

 Al 
  0.2390142  0.9847743  0.2475100

 Al 
  0.2377989  0.2505792  0.0030716

 Al 
  0.4939137  0.0148359  0.9963183

 Al 
  0.4874734  0.2391961  0.2593411

 Al 
  0.7414447  0.0024937  0.2383644

 Al 
  0.7546520  0.2531694  0.9863608

 Al 
  0.0301978  0.5073499  0.0026051

 Al 
  0.9977575  0.7548092  0.2388793

 Al 
  0.2452193  0.4933110  0.2516707

 Al 
  0.2504975  0.7497834  0.9956636

 Al 
  0.0227266  0.0035766  0.5097161

 Al 
  0.9960163  0.2460163  0.7546396

 Al 
  0.2528872  0.0019108  0.7699272

 Al 
  0.2614413  0.2357037  0.5055554

 Al 
  0.9976895  0.4925833  0.4996362

 Al 
  0.9989208  0.7601257  0.7377209

 Al 
  0.2435647  0.4922108  0.7493565

 Al 
  0.2370811  0.7388310  0.4984741

 Al 
  0.4904237  0.4943778  0.0196847

 Al 
  0.5056123  0.7516138  0.2489431

 Al 
  0.7664286  0.4868979  0.2070529

 Al 
  0.7635525  0.7503527  0.9877234

 Al 
  0.4890785  0.9962155  0.5071642

 Al 
  0.4904968  0.2565269  0.7647790

 Al 
  0.7454631  0.9959024  0.7614425

 Al 
  0.7373038  0.2563252  0.4944916

 Al 
  0.4869821  0.5032635  0.5141194

 Al 
  0.5022029  0.7360749  0.7681724

 Al 
  0.7570281  0.5125971  0.7524170

 Al 
  0.7480063  0.7692020  0.4902072

