32 
charge = 0 
 Al 
  0.9987872  0.0063091  0.9849921

 Al 
  0.0317262  0.2646862  0.2527214

 Al 
  0.2381107  0.9831147  0.2462576

 Al 
  0.2377518  0.2518885  0.0028402

 Al 
  0.4933976  0.0163878  0.9949891

 Al 
  0.4880055  0.2397839  0.2596654

 Al 
  0.7417405  0.0037313  0.2404856

 Al 
  0.7548055  0.2534800  0.9857359

 Al 
  0.0297188  0.5076160  0.0040382

 Al 
  0.9973727  0.7550851  0.2385043

 Al 
  0.2447131  0.4927491  0.2522561

 Al 
  0.2502834  0.7496374  0.9964284

 Al 
  0.0234964  0.0032597  0.5112532

 Al 
  0.9955732  0.2467502  0.7555542

 Al 
  0.2527412  0.0006930  0.7688184

 Al 
  0.2622939  0.2354673  0.5051681

 Al 
  0.9970323  0.4922962  0.4988763

 Al 
  0.9992624  0.7606158  0.7376182

 Al 
  0.2439372  0.4913816  0.7486214

 Al 
  0.2364462  0.7394176  0.4982996

 Al 
  0.4909571  0.4936340  0.0202292

 Al 
  0.5051693  0.7515049  0.2485780

 Al 
  0.7667801  0.4865650  0.2059267

 Al 
  0.7648025  0.7507463  0.9880377

 Al 
  0.4899609  0.9955757  0.5069031

 Al 
  0.4896008  0.2558487  0.7658458

 Al 
  0.7454470  0.9953369  0.7618422

 Al 
  0.7366690  0.2559626  0.4940065

 Al 
  0.4855774  0.5023291  0.5142171

 Al 
  0.5025989  0.7358683  0.7675523

 Al 
  0.7578882  0.5124548  0.7527338

 Al 
  0.7473516  0.7698196  0.4910029

