32 
charge = 0 
 Al 
  0.9992327  0.0010297  0.9916366

 Al 
  0.0204829  0.2577583  0.2551978

 Al 
  0.2441822  0.9934595  0.2533649

 Al 
  0.2393062  0.2436884  0.0038451

 Al 
  0.4969519  0.0062299  0.0036372

 Al 
  0.4852804  0.2368113  0.2570665

 Al 
  0.7409831  0.9970682  0.2280902

 Al 
  0.7536966  0.2510346  0.9896626

 Al 
  0.0304775  0.5058351  0.9945522

 Al 
  0.9997265  0.7532585  0.2411824

 Al 
  0.2491783  0.4976462  0.2496894

 Al 
  0.2517313  0.7508032  0.9923407

 Al 
  0.0173345  0.0054403  0.5015111

 Al 
  0.9985558  0.2430140  0.7493082

 Al 
  0.2533897  0.0075392  0.7739765

 Al 
  0.2562212  0.2381293  0.5079947

 Al 
  0.0007846  0.4942614  0.5034417

 Al 
  0.9979456  0.7570034  0.7389684

 Al 
  0.2419583  0.4966734  0.7529528

 Al 
  0.2411279  0.7364487  0.4994530

 Al 
  0.4879140  0.4980187  0.0157876

 Al 
  0.5070677  0.7518266  0.2504839

 Al 
  0.7642753  0.4894362  0.2149572

 Al 
  0.7566568  0.7485149  0.9871219

 Al 
  0.4851542  0.9987463  0.5087978

 Al 
  0.4956574  0.2598658  0.7590701

 Al 
  0.7451463  0.9994555  0.7580602

 Al 
  0.7411205  0.2576209  0.4971771

 Al 
  0.4947168  0.5079551  0.5129981

 Al 
  0.4996102  0.7378793  0.7705101

 Al 
  0.7526224  0.5123150  0.7504641

 Al 
  0.7515049  0.7652319  0.4867024

