32 
charge = 0 
 Al 
  0.9992958  0.0001559  0.9929013

 Al 
  0.0183085  0.2563549  0.2555344

 Al 
  0.2452119  0.9950188  0.2543278

 Al 
  0.2398037  0.2424521  0.0039552

 Al 
  0.4975496  0.0045592  0.0049899

 Al 
  0.4850082  0.2365328  0.2565529

 Al 
  0.7411118  0.9962390  0.2263786

 Al 
  0.7535023  0.2505817  0.9902888

 Al 
  0.0300839  0.5055072  0.9930399

 Al 
  0.0001299  0.7529330  0.2416489

 Al 
  0.2500681  0.4986263  0.2494975

 Al 
  0.2519454  0.7510606  0.9918977

 Al 
  0.0160796  0.0057571  0.4999752

 Al 
  0.9990446  0.2425796  0.7482674

 Al 
  0.2534404  0.0084389  0.7743886

 Al 
  0.2551285  0.2388483  0.5085219

 Al 
  0.0013205  0.4946055  0.5040926

 Al 
  0.9978986  0.7563809  0.7393099

 Al 
  0.2417950  0.4975014  0.7535320

 Al 
  0.2419992  0.7361641  0.4996560

 Al 
  0.4875204  0.4986152  0.0148891

 Al 
  0.5071729  0.7517908  0.2507215

 Al 
  0.7638050  0.4900537  0.2167727

 Al 
  0.7553277  0.7481870  0.9871801

 Al 
  0.4845713  0.9990619  0.5091679

 Al 
  0.4966895  0.2604339  0.7580169

 Al 
  0.7450262  0.0002017  0.7572076

 Al 
  0.7419088  0.2577335  0.4976709

 Al 
  0.4962267  0.5087904  0.5126578

 Al 
  0.4990397  0.7383830  0.7707354

 Al 
  0.7518217  0.5120761  0.7500631

 Al 
  0.7521657  0.7643780  0.4861616

