32 
charge = 0 
 Al 
  0.9991981  0.0014776  0.9910017

 Al 
  0.0215682  0.2584600  0.2550134

 Al 
  0.2436563  0.9926390  0.2528489

 Al 
  0.2390760  0.2443394  0.0037882

 Al 
  0.4966437  0.0070888  0.0029281

 Al 
  0.4854426  0.2369808  0.2573214

 Al 
  0.7409460  0.9975199  0.2290097

 Al 
  0.7537968  0.2512660  0.9893396

 Al 
  0.0306185  0.5059985  0.9953418

 Al 
  0.9995248  0.7534194  0.2409435

 Al 
  0.2487315  0.4971536  0.2498119

 Al 
  0.2516150  0.7506794  0.9925969

 Al 
  0.0179521  0.0052671  0.5023081

 Al 
  0.9983033  0.2432528  0.7498453

 Al 
  0.2533600  0.0070516  0.7737166

 Al 
  0.2567744  0.2377952  0.5077311

 Al 
  0.0005037  0.4940882  0.5030939

 Al 
  0.9979865  0.7573251  0.7388050

 Al 
  0.2420672  0.4962428  0.7526360

 Al 
  0.2406911  0.7366207  0.4993515

 Al 
  0.4881305  0.4976969  0.0162319

 Al 
  0.5069910  0.7518341  0.2503552

 Al 
  0.7645092  0.4891354  0.2140599

 Al 
  0.7573425  0.7486845  0.9871120

 Al 
  0.4854784  0.9985620  0.5086147

 Al 
  0.4951302  0.2595626  0.7596183

 Al 
  0.7452020  0.9990768  0.7584748

 Al 
  0.7407208  0.2575454  0.4969172

 Al 
  0.4939434  0.5075170  0.5131541

 Al 
  0.4998948  0.7376429  0.7703616

 Al 
  0.7530419  0.5124152  0.7506683

 Al 
  0.7511621  0.7656601  0.4869969

