32 
charge = 0 
 Al 
  0.9993243  0.9997302  0.9935275

 Al 
  0.0172269  0.2556594  0.2556854

 Al 
  0.2457118  0.9957539  0.2547733

 Al 
  0.2400686  0.2418729  0.0040085

 Al 
  0.4978343  0.0037511  0.0056272

 Al 
  0.4848980  0.2364264  0.2562980

 Al 
  0.7412022  0.9958641  0.2255903

 Al 
  0.7534058  0.2503614  0.9905908

 Al 
  0.0298352  0.5053413  0.9923246

 Al 
  0.0003317  0.7527709  0.2418754

 Al 
  0.2505037  0.4991102  0.2494258

 Al 
  0.2520420  0.7511942  0.9917133

 Al 
  0.0154460  0.0058995  0.4992389

 Al 
  0.9992785  0.2423840  0.7477674

 Al 
  0.2534602  0.0088486  0.7745396

 Al 
  0.2545914  0.2392320  0.5087830

 Al 
  0.0015742  0.4947750  0.5043946

 Al 
  0.9978900  0.7560814  0.7394869

 Al 
  0.2417417  0.4978937  0.7537931

 Al 
  0.2424298  0.7360514  0.4997574

 Al 
  0.4873434  0.4988862  0.0144386

 Al 
  0.5072026  0.7517611  0.2508316

 Al 
  0.7635686  0.4903668  0.2176835

 Al 
  0.7546879  0.7480286  0.9872271

 Al 
  0.4843139  0.9991931  0.5093560

 Al 
  0.4971907  0.2606975  0.7575157

 Al 
  0.7449619  0.0005680  0.7567719

 Al 
  0.7422937  0.2577694  0.4979048

 Al 
  0.4969593  0.5091840  0.5124759

 Al 
  0.4987575  0.7386491  0.7708109

 Al 
  0.7514405  0.5119400  0.7498688

 Al 
  0.7524838  0.7639560  0.4859153

