32 
charge = 0 
 Al 
  0.9994146  0.9981152  0.9959519

 Al 
  0.0129956  0.2529640  0.2561643

 Al 
  0.2475892  0.9983664  0.2563190

 Al 
  0.2412034  0.2398322  0.0042250

 Al 
  0.4988713  0.0007314  0.0078857

 Al 
  0.4846480  0.2362173  0.2553005

 Al 
  0.7417405  0.9946117  0.2229060

 Al 
  0.7530395  0.2495396  0.9917232

 Al 
  0.0285097  0.5046743  0.9897715

 Al 
  0.0011460  0.7521150  0.2427231

 Al 
  0.2521534  0.5009653  0.2492785

 Al 
  0.2523378  0.7517561  0.9912232

 Al 
  0.0128929  0.0063338  0.4965237

 Al 
  0.0001262  0.2417405  0.7459383

 Al 
  0.2535134  0.0102247  0.7747995

 Al 
  0.2525432  0.2409014  0.5097990

 Al 
  0.0024863  0.4954346  0.5054366

 Al 
  0.9979456  0.7549886  0.7402220

 Al 
  0.2417343  0.4993193  0.7546322

 Al 
  0.2441104  0.7357965  0.5001596

 Al 
  0.4867853  0.4997871  0.0126566

 Al 
  0.5071741  0.7515791  0.2512252

 Al 
  0.7626120  0.4916477  0.2213207

 Al 
  0.7523081  0.7474209  0.9875155

 Al 
  0.4834996  0.9995582  0.5101245

 Al 
  0.4990780  0.2616108  0.7556915

 Al 
  0.7446797  0.0019603  0.7549973

 Al 
  0.7437614  0.2577892  0.4987389

 Al 
  0.4997265  0.5106010  0.5116677

 Al 
  0.4976548  0.7398099  0.7708554

 Al 
  0.7500594  0.5112928  0.7491387

 Al 
  0.7536595  0.7623100  0.4850874

