32 
charge = 0 
 Al 
  0.9993503  0.9993132  0.9941463

 Al 
  0.0161539  0.2549713  0.2558240

 Al 
  0.2462007  0.9964556  0.2551940

 Al 
  0.2403421  0.2413197  0.0040617

 Al 
  0.4981102  0.0029640  0.0062361

 Al 
  0.4848077  0.2363410  0.2560443

 Al 
  0.7413111  0.9955138  0.2248490

 Al 
  0.7533130  0.2501460  0.9908854

 Al 
  0.0295518  0.5051755  0.9916390

 Al 
  0.0005346  0.7526075  0.2420957

 Al 
  0.2509319  0.4995867  0.2493676

 Al 
  0.2521298  0.7513316  0.9915536

 Al 
  0.0148087  0.0060282  0.4985248

 Al 
  0.9995037  0.2422034  0.7472836

 Al 
  0.2534763  0.0092335  0.7746560

 Al 
  0.2540642  0.2396292  0.5090416

 Al 
  0.0018167  0.4949421  0.5046805

 Al 
  0.9978912  0.7557918  0.7396676

 Al 
  0.2417096  0.4982724  0.7540332

 Al 
  0.2428580  0.7359574  0.4998589

 Al 
  0.4871826  0.4991399  0.0139894

 Al 
  0.5072162  0.7517264  0.2509368

 Al 
  0.7633310  0.4906836  0.2185956

 Al 
  0.7540654  0.7478726  0.9872840

 Al 
  0.4840775  0.9993082  0.5095466

 Al 
  0.4976808  0.2609462  0.7570331

 Al 
  0.7448938  0.0009269  0.7563314

 Al 
  0.7426724  0.2577917  0.4981288

 Al 
  0.4976759  0.5095626  0.5122853

 Al 
  0.4984766  0.7389251  0.7708604

 Al 
  0.7510730  0.5117927  0.7496782

 Al 
  0.7527919  0.7635377  0.4856851

