32 
charge = 0 
 Al 
  0.9993948  0.9985050  0.9953591

 Al 
  0.0140377  0.2536223  0.2560641

 Al 
  0.2471388  0.9977625  0.2559663

 Al 
  0.2409101  0.2402987  0.0041693

 Al 
  0.4986288  0.0014541  0.0073660

 Al 
  0.4846827  0.2362371  0.2555455

 Al 
  0.7415809  0.9948889  0.2235075

 Al 
  0.7531298  0.2497352  0.9914509

 Al 
  0.0288884  0.5048413  0.9903619

 Al 
  0.0009418  0.7522808  0.2425202

 Al 
  0.2517573  0.5005161  0.2492958

 Al 
  0.2522771  0.7516125  0.9913086

 Al 
  0.0135327  0.0062472  0.4971672

 Al 
  0.9999270  0.2418816  0.7463690

 Al 
  0.2535035  0.0099203  0.7747847

 Al 
  0.2530395  0.2404646  0.5095503

 Al 
  0.0022734  0.4952725  0.5052015

 Al 
  0.9979197  0.7552448  0.7400339

 Al 
  0.2417046  0.4989852  0.7544527

 Al 
  0.2436983  0.7358311  0.5000594

 Al 
  0.4869029  0.4995904  0.0130971

 Al 
  0.5072014  0.7516348  0.2511336

 Al 
  0.7628521  0.4913247  0.2204148

 Al 
  0.7528749  0.7475694  0.9874301

 Al 
  0.4836716  0.9994901  0.5099302

 Al 
  0.4986238  0.2614029  0.7561210

 Al 
  0.7447527  0.0016237  0.7554440

 Al 
  0.7434063  0.2578016  0.4985459

 Al 
  0.4990595  0.5102705  0.5118818

 Al 
  0.4979258  0.7395055  0.7708826

 Al 
  0.7503824  0.5114685  0.7493132

 Al 
  0.7533785  0.7627147  0.4852718

