32 
charge = 0 
 Al 
  0.9995347  0.9952317  0.0004121

 Al 
  0.0049564  0.2480719  0.2564316

 Al 
  0.2507438  0.0021472  0.2584860

 Al 
  0.2437305  0.2370737  0.0047770

 Al 
  0.5003911  0.9955856  0.0110106

 Al 
  0.4850824  0.2368534  0.2534194

 Al 
  0.7436513  0.9930969  0.2196327

 Al 
  0.7523625  0.2482402  0.9937491

 Al 
  0.0243750  0.5032498  0.9861232

 Al 
  0.0028625  0.7507005  0.2441983

 Al 
  0.2549020  0.5042238  0.2495000

 Al 
  0.2524281  0.7529714  0.9913779

 Al 
  0.0076840  0.0064626  0.4920511

 Al 
  0.0013972  0.2410079  0.7430994

 Al 
  0.2535580  0.0117952  0.7737649

 Al 
  0.2489382  0.2448802  0.5116764

 Al 
  0.0038810  0.4967440  0.5067868

 Al 
  0.9983776  0.7533253  0.7417987

 Al 
  0.2427306  0.5015321  0.7554057

 Al 
  0.2472749  0.7362470  0.5010049

 Al 
  0.4863670  0.5007760  0.0091951

 Al 
  0.5065393  0.7509220  0.2518724

 Al 
  0.7605750  0.4943270  0.2286063

 Al 
  0.7483342  0.7462242  0.9884758

 Al 
  0.4828115  0.9996436  0.5117853

 Al 
  0.5023068  0.2628174  0.7527585

 Al 
  0.7440349  0.0043674  0.7513242

 Al 
  0.7463566  0.2573338  0.4999814

 Al 
  0.5046211  0.5127469  0.5096146

 Al 
  0.4955968  0.7426365  0.7696896

 Al 
  0.7479531  0.5096220  0.7479135

 Al 
  0.7556445  0.7591443  0.4840775

