32 
charge = 0 
 Al 
  0.9997203  0.9928419  0.0041248

 Al 
  0.9977835  0.2441129  0.2557844

 Al 
  0.2530184  0.0042572  0.2597607

 Al 
  0.2462366  0.2359215  0.0055010

 Al 
  0.5011522  0.9916366  0.0124090

 Al 
  0.4866343  0.2386318  0.2518279

 Al 
  0.7463480  0.9925313  0.2188221

 Al 
  0.7517648  0.2474791  0.9955423

 Al 
  0.0189174  0.5016992  0.9842495

 Al 
  0.0046644  0.7491250  0.2454346

 Al 
  0.2567806  0.5067163  0.2501064

 Al 
  0.2518588  0.7541186  0.9927293

 Al 
  0.0026397  0.0055925  0.4887902

 Al 
  0.0021063  0.2408210  0.7414088

 Al 
  0.2535394  0.0120526  0.7711388

 Al 
  0.2461586  0.2492797  0.5131602

 Al 
  0.0047708  0.4980805  0.5072793

 Al 
  0.9990520  0.7523885  0.7433790

 Al 
  0.2447713  0.5030234  0.7552757

 Al 
  0.2500384  0.7377902  0.5019343

 Al 
  0.4867940  0.5009356  0.0060393

 Al 
  0.5054119  0.7500210  0.2524380

 Al 
  0.7584006  0.4969692  0.2355997

 Al 
  0.7453690  0.7449371  0.9896812

 Al 
  0.4831060  0.9992117  0.5134981

 Al 
  0.5047312  0.2632803  0.7505817

 Al 
  0.7433865  0.0061371  0.7477464

 Al 
  0.7484283  0.2564477  0.5007116

 Al 
  0.5086592  0.5140711  0.5070949

 Al 
  0.4938555  0.7459123  0.7671242

 Al 
  0.7466957  0.5077546  0.7470459

 Al 
  0.7572039  0.7562249  0.4837817

