32 
charge = 0 
 Al 
  0.9995037  0.9959235  0.9993330

 Al 
  0.0069415  0.2492414  0.2564576

 Al 
  0.2500223  0.0013601  0.2580343

 Al 
  0.2430697  0.2376083  0.0046161

 Al 
  0.5000780  0.9967836  0.0103918

 Al 
  0.4848522  0.2365613  0.2538798

 Al 
  0.7430647  0.9933741  0.2202106

 Al 
  0.7525283  0.2485211  0.9932553

 Al 
  0.0255977  0.5036285  0.9868682

 Al 
  0.0024120  0.7510779  0.2438481

 Al 
  0.2542820  0.5034615  0.2493924

 Al 
  0.2524739  0.7526583  0.9912022

 Al 
  0.0090156  0.0065331  0.4930734

 Al 
  0.0011287  0.2411329  0.7437132

 Al 
  0.2535518  0.0115378  0.7742117

 Al 
  0.2497859  0.2437973  0.5112247

 Al 
  0.0035778  0.4964074  0.5065331

 Al 
  0.9982352  0.7536780  0.7413878

 Al 
  0.2423531  0.5010445  0.7553141

 Al 
  0.2464977  0.7360118  0.5007809

 Al 
  0.4863843  0.5006188  0.0100577

 Al 
  0.5067620  0.7511212  0.2517190

 Al 
  0.7611121  0.4936352  0.2267561

 Al 
  0.7492488  0.7465348  0.9881937

 Al 
  0.4828771  0.9996906  0.5113472

 Al 
  0.5015569  0.2625872  0.7534243

 Al 
  0.7442057  0.0038092  0.7522672

 Al 
  0.7457415  0.2575021  0.4997166

 Al 
  0.5034516  0.5122840  0.5101938

 Al 
  0.4960980  0.7418556  0.7701438

 Al 
  0.7484060  0.5100837  0.7481944

 Al 
  0.7551817  0.7599352  0.4842594

