32 
charge = 0 
 Al 
  0.9996485  0.9935275  0.0030667

 Al 
  0.9998936  0.2452329  0.2560653

 Al 
  0.2524021  0.0037461  0.2594339

 Al 
  0.2454854  0.2361405  0.0052658

 Al 
  0.5009876  0.9927380  0.0121269

 Al 
  0.4860613  0.2379956  0.2522808

 Al 
  0.7454693  0.9926353  0.2188567

 Al 
  0.7519405  0.2476598  0.9950114

 Al 
  0.0206821  0.5021868  0.9846753

 Al 
  0.0041050  0.7496250  0.2450733

 Al 
  0.2562868  0.5060257  0.2498973

 Al 
  0.2520902  0.7537845  0.9922207

 Al 
  0.0041594  0.0059477  0.4896824

 Al 
  0.0019393  0.2408383  0.7418197

 Al 
  0.2535543  0.0120786  0.7720682

 Al 
  0.2469271  0.2479135  0.5127531

 Al 
  0.0045394  0.4976647  0.5072026

 Al 
  0.9988305  0.7526100  0.7428989

 Al 
  0.2440671  0.5026224  0.7553797

 Al 
  0.2492339  0.7372259  0.5016398

 Al 
  0.4865898  0.5009467  0.0069737

 Al 
  0.5057918  0.7503119  0.2522672

 Al 
  0.7590788  0.4961722  0.2334922

 Al 
  0.7461895  0.7453468  0.9893013

 Al 
  0.4829365  0.9993713  0.5129783

 Al 
  0.5040654  0.2632036  0.7511930

 Al 
  0.7435783  0.0056581  0.7488243

 Al 
  0.7478442  0.2567509  0.5005346

 Al 
  0.5074996  0.5137369  0.5079068

 Al 
  0.4943542  0.7448802  0.7680263

 Al 
  0.7470051  0.5083300  0.7472761

 Al 
  0.7567620  0.7570925  0.4838114

