32 
charge = 0 
 Al 
  0.9995186  0.9955757  0.9998750

 Al 
  0.0059490  0.2486523  0.2564527

 Al 
  0.2503874  0.0017660  0.2582657

 Al 
  0.2433976  0.2373286  0.0046941

 Al 
  0.5002401  0.9961796  0.0107136

 Al 
  0.4849562  0.2366962  0.2536496

 Al 
  0.7433481  0.9932281  0.2199025

 Al 
  0.7524454  0.2483776  0.9935028

 Al 
  0.0250037  0.5034417  0.9864833

 Al 
  0.0026348  0.7508923  0.2440238

 Al 
  0.2545975  0.5038463  0.2494419

 Al 
  0.2524566  0.7528142  0.9912789

 Al 
  0.0083535  0.0065071  0.4925561

 Al 
  0.0012673  0.2410660  0.7433988

 Al 
  0.2535555  0.0116764  0.7740050

 Al 
  0.2493589  0.2443307  0.5114524

 Al 
  0.0037325  0.4965744  0.5066667

 Al 
  0.9983033  0.7534974  0.7415908

 Al 
  0.2425313  0.5012933  0.7553673

 Al 
  0.2468863  0.7361195  0.5008910

 Al 
  0.4863682  0.5007042  0.0096282

 Al 
  0.5066556  0.7510247  0.2517957

 Al 
  0.7608472  0.4939780  0.2276756

 Al 
  0.7487872  0.7463814  0.9883310

 Al 
  0.4828362  0.9996720  0.5115638

 Al 
  0.5019355  0.2627073  0.7530877

 Al 
  0.7441216  0.0040914  0.7517982

 Al 
  0.7460509  0.2574229  0.4998527

 Al 
  0.5040394  0.5125204  0.5099104

 Al 
  0.4958467  0.7422392  0.7699309

 Al 
  0.7481734  0.5098572  0.7480521

 Al 
  0.7554143  0.7595404  0.4841629

