32 
charge = 0 
 Al 
  0.9995928  0.9942082  0.0020086

 Al 
  0.0019479  0.2463579  0.2562670

 Al 
  0.2517611  0.0031644  0.2590812

 Al 
  0.2447639  0.2364462  0.0050542

 Al 
  0.5007797  0.9938567  0.0117519

 Al 
  0.4855960  0.2374647  0.2527350

 Al 
  0.7446785  0.9927838  0.2190510

 Al 
  0.7521113  0.2478702  0.9944978

 Al 
  0.0222749  0.5026360  0.9851876

 Al 
  0.0035852  0.7500817  0.2447206

 Al 
  0.2557596  0.5053203  0.2497166

 Al 
  0.2522647  0.7534540  0.9918123

 Al 
  0.0056099  0.0062150  0.4906032

 Al 
  0.0017437  0.2408841  0.7422887

 Al 
  0.2535605  0.0120254  0.7728504

 Al 
  0.2477155  0.2466388  0.5123311

 Al 
  0.0042919  0.4972786  0.5070739

 Al 
  0.9986325  0.7528687  0.7424434

 Al 
  0.2434620  0.5022041  0.7554317

 Al 
  0.2484431  0.7367643  0.5013700

 Al 
  0.4864536  0.5009146  0.0078783

 Al 
  0.5061235  0.7505755  0.2521051

 Al 
  0.7597074  0.4954111  0.2314811

 Al 
  0.7470286  0.7457193  0.9889498

 Al 
  0.4828362  0.9995050  0.5124833

 Al 
  0.5033785  0.2630823  0.7518081

 Al 
  0.7437664  0.0051582  0.7498540

 Al 
  0.7472551  0.2570133  0.5003317

 Al 
  0.5063499  0.5133682  0.5086407

 Al 
  0.4948517  0.7439273  0.7687874

 Al 
  0.7473541  0.5088708  0.7475212

 Al 
  0.7563190  0.7579303  0.4838857

