32 
charge = 0 
 Al 
  0.0004468  0.9893619  0.0092632

 Al 
  0.9862940  0.2387122  0.2530803

 Al 
  0.2557695  0.0058747  0.2611133

 Al 
  0.2503836  0.2361195  0.0070232

 Al 
  0.5013032  0.9864623  0.0124548

 Al 
  0.4912863  0.2434335  0.2496956

 Al 
  0.7519454  0.9925375  0.2213640

 Al 
  0.7507797  0.2470633  0.9985001

 Al 
  0.0074179  0.4985867  0.9833944

 Al 
  0.0080466  0.7458220  0.2474469

 Al 
  0.2587768  0.5098572  0.2515197

 Al 
  0.2498738  0.7557015  0.9968714

 Al 
  0.9939458  0.0024120  0.4848102

 Al 
  0.0024293  0.2410648  0.7403532

 Al 
  0.2531991  0.0107767  0.7641441

 Al 
  0.2427664  0.2574402  0.5147072

 Al 
  0.0056445  0.5007203  0.5068610

 Al 
  0.0004381  0.7518774  0.7461277

 Al 
  0.2497871  0.5048896  0.7540901

 Al 
  0.2543055  0.7422343  0.5038711

 Al 
  0.4888966  0.5003478  0.0008700

 Al 
  0.5027746  0.7482167  0.2534466

 Al 
  0.7542127  0.5014690  0.2477402

 Al 
  0.7415734  0.7421823  0.9919967

 Al 
  0.4851047  0.9982179  0.5162752

 Al 
  0.5076692  0.2629263  0.7474345

 Al 
  0.7425226  0.0081036  0.7416341

 Al 
  0.7512772  0.2542461  0.5011621

 Al 
  0.5145302  0.5151799  0.5017883

 Al 
  0.4914150  0.7522635  0.7603757

 Al 
  0.7457613  0.5044614  0.7461141

 Al 
  0.7594240  0.7514380  0.4844723

