32 
charge = 0 
 Al 
  0.0015432  0.9867630  0.0125105

 Al 
  0.9767697  0.2353411  0.2493317

 Al 
  0.2575306  0.0062386  0.2620353

 Al 
  0.2538785  0.2378298  0.0085417

 Al 
  0.5006893  0.9832360  0.0108943

 Al 
  0.4972254  0.2490397  0.2485162

 Al 
  0.7568685  0.9926860  0.2271818

 Al 
  0.7497612  0.2473269  0.0009319

 Al 
  0.9953579  0.4952564  0.9844302

 Al 
  0.0111343  0.7421118  0.2492909

 Al 
  0.2597384  0.5115155  0.2529305

 Al 
  0.2475459  0.7564465  0.0020073

 Al 
  0.9860947  0.9982365  0.4827001

 Al 
  0.0017474  0.2415153  0.7410673

 Al 
  0.2523155  0.0085157  0.7558438

 Al 
  0.2411836  0.2649671  0.5146032

 Al 
  0.0057386  0.5035469  0.5055171

 Al 
  0.0015556  0.7522870  0.7486028

 Al 
  0.2554032  0.5063512  0.7526137

 Al 
  0.2577546  0.7477291  0.5059663

 Al 
  0.4919497  0.4994963  0.9963777

 Al 
  0.4999282  0.7467489  0.2543364

 Al 
  0.7501695  0.5053512  0.2588028

 Al 
  0.7392716  0.7391367  0.9943122

 Al 
  0.4883248  0.9977489  0.5178667

 Al 
  0.5091109  0.2616083  0.7447107

 Al 
  0.7424397  0.0087632  0.7363757

 Al 
  0.7533167  0.2517128  0.5008168

 Al 
  0.5186847  0.5150809  0.4963591

 Al 
  0.4899399  0.7582298  0.7524355

 Al 
  0.7459470  0.5016893  0.7455856

 Al 
  0.7610787  0.7474927  0.4865031

