32 
charge = 0 
 Al 
  0.0005544  0.9890278  0.0097248

 Al 
  0.9851183  0.2382295  0.2526991

 Al 
  0.2560059  0.0059576  0.2612284

 Al 
  0.2508106  0.2362519  0.0071989

 Al 
  0.5012586  0.9860081  0.0123422

 Al 
  0.4919014  0.2440374  0.2495161

 Al 
  0.7525605  0.9925672  0.2218752

 Al 
  0.7506720  0.2470695  0.9988058

 Al 
  0.0060740  0.4982229  0.9834303

 Al 
  0.0084167  0.7454235  0.2476610

 Al 
  0.2589278  0.5101183  0.2516831

 Al 
  0.2496164  0.7558302  0.9974135

 Al 
  0.9930164  0.0019801  0.4844834

 Al 
  0.0024021  0.2411106  0.7403520

 Al 
  0.2531298  0.0105576  0.7632580

 Al 
  0.2425004  0.2583276  0.5147839

 Al 
  0.0056953  0.5010297  0.5067460

 Al 
  0.0005854  0.7518848  0.7464197

 Al 
  0.2504010  0.5050666  0.7539280

 Al 
  0.2547337  0.7428098  0.5041025

 Al 
  0.4891998  0.5002562  0.0003317

 Al 
  0.5024566  0.7480236  0.2535568

 Al 
  0.7537424  0.5019393  0.2490458

 Al 
  0.7412455  0.7418482  0.9922566

 Al 
  0.4854104  0.9981263  0.5165301

 Al 
  0.5079031  0.2628211  0.7471128

 Al 
  0.7424682  0.0082422  0.7409918

 Al 
  0.7515432  0.2539713  0.5011584

 Al 
  0.5150846  0.5152270  0.5011695

 Al 
  0.4911972  0.7529652  0.7595230

 Al 
  0.7457329  0.5041198  0.7460423

 Al 
  0.7596369  0.7509480  0.4846307

