32 
charge = 0 
 Al 
  0.0028192  0.9850144  0.0132518

 Al 
  0.9702465  0.2348968  0.2448233

 Al 
  0.2586617  0.0061371  0.2629882

 Al 
  0.2566061  0.2409311  0.0097953

 Al 
  0.4998515  0.9821160  0.0079476

 Al 
  0.5044292  0.2550715  0.2485248

 Al 
  0.7590639  0.9916601  0.2362928

 Al 
  0.7480261  0.2477068  0.0021558

 Al 
  0.9829872  0.4915833  0.9873781

 Al 
  0.0133347  0.7378570  0.2511089

 Al 
  0.2598349  0.5110131  0.2543117

 Al 
  0.2454705  0.7559923  0.0076320

 Al 
  0.9796842  0.9932132  0.4828833

 Al 
  0.9997760  0.2421959  0.7438159

 Al 
  0.2504047  0.0055938  0.7465794

 Al 
  0.2418185  0.2715125  0.5117865

 Al 
  0.0047943  0.5066432  0.5034887

 Al 
  0.0019603  0.7534553  0.7509925

 Al 
  0.2612767  0.5077385  0.7513762

 Al 
  0.2600255  0.7542745  0.5078560

 Al 
  0.4960559  0.4987080  0.9925511

 Al 
  0.4971994  0.7465274  0.2547832

 Al 
  0.7469395  0.5083993  0.2679150

 Al 
  0.7386008  0.7361591  0.9968665

 Al 
  0.4933258  0.9987402  0.5165153

 Al 
  0.5088015  0.2591679  0.7422863

 Al 
  0.7437590  0.0076877  0.7328659

 Al 
  0.7545159  0.2490236  0.4996758

 Al 
  0.5201710  0.5133063  0.4916947

 Al 
  0.4902022  0.7632432  0.7440003

 Al 
  0.7473380  0.4995396  0.7450460

 Al 
  0.7620118  0.7448951  0.4908148

