32 
charge = 0 
 Al 
  0.0021682  0.9857915  0.0132741

 Al 
  0.9730669  0.2346270  0.2472217

 Al 
  0.2581531  0.0062101  0.2624660

 Al 
  0.2553203  0.2391231  0.0092087

 Al 
  0.5002809  0.9823722  0.0096678

 Al 
  0.5005470  0.2519368  0.2483342

 Al 
  0.7584872  0.9924546  0.2311358

 Al 
  0.7490929  0.2475509  0.0017648

 Al 
  0.9893706  0.4935176  0.9855663

 Al 
  0.0123855  0.7401218  0.2501720

 Al 
  0.2599055  0.5116467  0.2536001

 Al 
  0.2464556  0.7564267  0.0047114

 Al 
  0.9826976  0.9959099  0.4824142

 Al 
  0.0009863  0.2417950  0.7420883

 Al 
  0.2515729  0.0071741  0.7514640

 Al 
  0.2411415  0.2683085  0.5137048

 Al 
  0.0054391  0.5050158  0.5046124

 Al 
  0.0018823  0.7527610  0.7497525

 Al 
  0.2582484  0.5070182  0.7519467

 Al 
  0.2590750  0.7507562  0.5069588

 Al 
  0.4937775  0.4990929  0.9944174

 Al 
  0.4985644  0.7463851  0.2546495

 Al 
  0.7484097  0.5069712  0.2636132

 Al 
  0.7386924  0.7376368  0.9954977

 Al 
  0.4904386  0.9979481  0.5177862

 Al 
  0.5092322  0.2606022  0.7434830

 Al 
  0.7428407  0.0085330  0.7343325

 Al 
  0.7540283  0.2504146  0.5003762

 Al 
  0.5198975  0.5145092  0.4938926

 Al 
  0.4897344  0.7608448  0.7483417

 Al 
  0.7464420  0.5005569  0.7453567

 Al 
  0.7616628  0.7459891  0.4881862

