32 
charge = 0 
 Al 
  0.0026187  0.9852334  0.0133657

 Al 
  0.9710027  0.2346740  0.2456104

 Al 
  0.2585144  0.0061581  0.2628075

 Al 
  0.2562225  0.2402913  0.0096245

 Al 
  0.4999839  0.9821147  0.0085565

 Al 
  0.5031360  0.2540580  0.2484134

 Al 
  0.7590429  0.9919979  0.2345131

 Al 
  0.7484283  0.2476771  0.0021014

 Al 
  0.9850428  0.4922145  0.9867148

 Al 
  0.0130860  0.7386033  0.2508057

 Al 
  0.2598869  0.5113212  0.2540802

 Al 
  0.2457589  0.7561891  0.0066915

 Al 
  0.9805653  0.9941080  0.4826296

 Al 
  0.0002153  0.2420499  0.7431773

 Al 
  0.2508341  0.0061185  0.7481820

 Al 
  0.2415066  0.2705250  0.5125340

 Al 
  0.0050418  0.5061123  0.5038674

 Al 
  0.0019714  0.7532115  0.7505866

 Al 
  0.2603039  0.5075021  0.7515395

 Al 
  0.2597842  0.7531038  0.5075949

 Al 
  0.4952775  0.4988256  0.9931241

 Al 
  0.4976264  0.7464036  0.2547696

 Al 
  0.7473504  0.5079786  0.2666465

 Al 
  0.7385624  0.7366120  0.9964086

 Al 
  0.4923061  0.9984023  0.5170957

 Al 
  0.5090119  0.2596777  0.7426575

 Al 
  0.7433988  0.0080417  0.7332372

 Al 
  0.7543946  0.2494703  0.4999307

 Al 
  0.5202280  0.5137765  0.4923333

 Al 
  0.4899522  0.7625229  0.7453876

 Al 
  0.7470051  0.4998465  0.7451611

 Al 
  0.7619388  0.7451772  0.4898495

