32 
charge = 0 
 Al 
  0.0033340  0.9845404  0.0120526

 Al 
  0.9689533  0.2367606  0.2421019

 Al 
  0.2590169  0.0061433  0.2637431

 Al 
  0.2576766  0.2435857  0.0101876

 Al 
  0.4994914  0.9827929  0.0053933

 Al 
  0.5091790  0.2585392  0.2493020

 Al 
  0.7576791  0.9897876  0.2432491

 Al 
  0.7460509  0.2475038  0.0016856

 Al 
  0.9760371  0.4894077  0.9903260

 Al 
  0.0136503  0.7352346  0.2521571

 Al 
  0.2594488  0.5090750  0.2551346

 Al 
  0.2447936  0.7548178  0.0107643

 Al 
  0.9775642  0.9899832  0.4845973

 Al 
  0.9979333  0.2428518  0.7466276

 Al 
  0.2484889  0.0037498  0.7408631

 Al 
  0.2436439  0.2745223  0.5081555

 Al 
  0.0036644  0.5084748  0.5021063

 Al 
  0.0016138  0.7543773  0.7524813

 Al 
  0.2645451  0.5086110  0.7509690

 Al 
  0.2602520  0.7585404  0.5084241

 Al 
  0.4990892  0.4983615  0.9908235

 Al 
  0.4958752  0.7476350  0.2545592

 Al 
  0.7461512  0.5095045  0.2711809

 Al 
  0.7392666  0.7349092  0.9985904

 Al 
  0.4976152  0.0006200  0.5129721

 Al 
  0.5075182  0.2570343  0.7411527

 Al 
  0.7455175  0.0057559  0.7325306

 Al 
  0.7546495  0.2475410  0.4985805

 Al 
  0.5186563  0.5109648  0.4902220

 Al 
  0.4920053  0.7652270  0.7394498

 Al 
  0.7487785  0.4986300  0.7444644

 Al 
  0.7618596  0.7445201  0.4951537

