32 
charge = 0 
 Al 
  0.0030815  0.9847569  0.0128905

 Al 
  0.9694384  0.2354859  0.2436563

 Al 
  0.2588436  0.0061210  0.2632828

 Al 
  0.2571110  0.2419781  0.0100032

 Al 
  0.4996758  0.9822769  0.0069464

 Al 
  0.5064069  0.2565616  0.2487822

 Al 
  0.7587595  0.9909992  0.2391144

 Al 
  0.7473046  0.2476882  0.0020853

 Al 
  0.9799849  0.4906490  0.9885080

 Al 
  0.0135810  0.7367395  0.2515569

 Al 
  0.2597074  0.5103534  0.2546582

 Al 
  0.2451153  0.7555901  0.0089971

 Al 
  0.9785889  0.9918568  0.4834538

 Al 
  0.9990471  0.2424447  0.7449025

 Al 
  0.2496708  0.0048067  0.7441723

 Al 
  0.2424546  0.2728763  0.5104376

 Al 
  0.0043612  0.5074303  0.5029083

 Al 
  0.0018724  0.7538389  0.7516101

 Al 
  0.2626937  0.5080986  0.7511720

 Al 
  0.2602433  0.7560579  0.5081692

 Al 
  0.4972848  0.4985471  0.9917640

 Al 
  0.4966029  0.7468653  0.2547399

 Al 
  0.7464742  0.5089389  0.2695324

 Al 
  0.7387840  0.7355564  0.9975744

 Al 
  0.4950064  0.9994023  0.5153086

 Al 
  0.5083597  0.2583276  0.7417727

 Al 
  0.7444124  0.0070009  0.7325318

 Al 
  0.7546272  0.2483751  0.4992476

 Al 
  0.5197874  0.5124474  0.4909138

 Al 
  0.4907826  0.7641899  0.7420029

 Al 
  0.7479036  0.4991238  0.7448381

 Al 
  0.7620328  0.7446178  0.4924694

