32 
charge = 0 
 Al 
  0.0034206  0.9844810  0.0111579

 Al 
  0.9690399  0.2380971  0.2409361

 Al 
  0.2590862  0.0062076  0.2641441

 Al 
  0.2580281  0.2449817  0.0102408

 Al 
  0.4993948  0.9834191  0.0040233

 Al 
  0.5113967  0.2600317  0.2498280

 Al 
  0.7563264  0.9886070  0.2466759

 Al 
  0.7448406  0.2472019  0.0011311

 Al 
  0.9730830  0.4884746  0.9919682

 Al 
  0.0134832  0.7340973  0.2526150

 Al 
  0.2591877  0.5077892  0.2555059

 Al 
  0.2446810  0.7540345  0.0120563

 Al 
  0.9771620  0.9885253  0.4857643

 Al 
  0.9969902  0.2432281  0.7481449

 Al 
  0.2474370  0.0029652  0.7382605

 Al 
  0.2448084  0.2756423  0.5060480

 Al 
  0.0030593  0.5092446  0.5014888

 Al 
  0.0013019  0.7547832  0.7532003

 Al 
  0.2659237  0.5090367  0.7508589

 Al 
  0.2600317  0.7605007  0.5084649

 Al 
  0.5006039  0.4982476  0.9901911

 Al 
  0.4953777  0.7484704  0.2543253

 Al 
  0.7461524  0.5098225  0.2720274

 Al 
  0.7398173  0.7345626  0.9994270

 Al 
  0.4999072  0.0018106  0.5105972

 Al 
  0.5066828  0.2559094  0.7407344

 Al 
  0.7465348  0.0045431  0.7329043

 Al 
  0.7545802  0.2469346  0.4980050

 Al 
  0.5172875  0.5095701  0.4899980

 Al 
  0.4933196  0.7658371  0.7376009

 Al 
  0.7495186  0.4982934  0.7440894

 Al 
  0.7615378  0.7446488  0.4975868

