32 
charge = 0 
 Al 
  0.0029999  0.9848337  0.0130365

 Al 
  0.9696649  0.2352557  0.2440436

 Al 
  0.2587879  0.0061235  0.2631813

 Al 
  0.2569514  0.2416155  0.0099401

 Al 
  0.4997314  0.9822026  0.0072930

 Al 
  0.5057411  0.2560678  0.2486845

 Al 
  0.7589080  0.9912418  0.2381503

 Al 
  0.7475632  0.2477043  0.0021298

 Al 
  0.9809787  0.4909596  0.9881120

 Al 
  0.0135167  0.7371120  0.2514071

 Al 
  0.2597557  0.5105997  0.2545419

 Al 
  0.2452230  0.7557398  0.0085466

 Al 
  0.9789231  0.9923123  0.4832372

 Al 
  0.9992995  0.2423568  0.7445213

 Al 
  0.2499282  0.0050691  0.7449780

 Al 
  0.2422194  0.2724358  0.5109190

 Al 
  0.0045134  0.5071692  0.5031026

 Al 
  0.0019120  0.7537077  0.7514022

 Al 
  0.2622259  0.5079761  0.7512351

 Al 
  0.2601913  0.7554577  0.5080751

 Al 
  0.4968653  0.4985978  0.9920177

 Al 
  0.4967960  0.7467316  0.2547621

 Al 
  0.7466091  0.5087706  0.2690300

 Al 
  0.7387060  0.7357470  0.9973343

 Al 
  0.4944235  0.9991597  0.5157579

 Al 
  0.5085243  0.2586184  0.7419385

 Al 
  0.7441785  0.0072521  0.7326135

 Al 
  0.7546000  0.2485892  0.4993961

 Al 
  0.5199569  0.5127556  0.4911502

 Al 
  0.4905599  0.7638904  0.7426588

 Al 
  0.7477068  0.4992575  0.7449124

 Al 
  0.7620378  0.7446909  0.4918865

