32 
charge = 0 
 Al 
  0.0033922  0.9845230  0.0100540

 Al 
  0.9695176  0.2397394  0.2397951

 Al 
  0.2590948  0.0063289  0.2645884

 Al 
  0.2583139  0.2465373  0.0102087

 Al 
  0.4993367  0.9842570  0.0024640

 Al 
  0.5137122  0.2615118  0.2504591

 Al 
  0.7545109  0.9872048  0.2503428

 Al 
  0.7433778  0.2467242  0.0003515

 Al 
  0.9701673  0.4875575  0.9938605

 Al 
  0.0131008  0.7329835  0.2530692

 Al 
  0.2588721  0.5062324  0.2558784

 Al 
  0.2446946  0.7530630  0.0133001

 Al 
  0.9771199  0.9870588  0.4871912

 Al 
  0.9959730  0.2436699  0.7498391

 Al 
  0.2462527  0.0022214  0.7355700

 Al 
  0.2461945  0.2766447  0.5036124

 Al 
  0.0023972  0.5099760  0.5008762

 Al 
  0.0008898  0.7551606  0.7539862

 Al 
  0.2672764  0.5095032  0.7507784

 Al 
  0.2596134  0.7625105  0.5083486

 Al 
  0.5022610  0.4981647  0.9896329

 Al 
  0.4949309  0.7495186  0.2540097

 Al 
  0.7463764  0.5100540  0.2725125

 Al 
  0.7405277  0.7343659  0.0003280

 Al 
  0.5024850  0.0032387  0.5076741

 Al 
  0.5056755  0.2546495  0.7403606

 Al 
  0.7477043  0.0030914  0.7336345

 Al 
  0.7544565  0.2463579  0.4973788

 Al 
  0.5154547  0.5079414  0.4900574

 Al 
  0.4949978  0.7662913  0.7358299

 Al 
  0.7503094  0.4979828  0.7436241

 Al 
  0.7610106  0.7449371  0.5003824

