32 
charge = 0 
 Al 
  0.0029380  0.9849389  0.0074761

 Al 
  0.9715064  0.2435870  0.2378051

 Al 
  0.2588845  0.0067719  0.2654782

 Al 
  0.2586493  0.2499059  0.0098621

 Al 
  0.4993330  0.9864437  0.9989765

 Al 
  0.5182615  0.2641466  0.2518662

 Al 
  0.7498861  0.9840255  0.2577521

 Al 
  0.7398916  0.2452094  0.9982575

 Al 
  0.9649238  0.4859302  0.9981511

 Al 
  0.0117098  0.7310740  0.2538674

 Al 
  0.2581073  0.5026088  0.2564997

 Al 
  0.2451067  0.7506807  0.0154374

 Al 
  0.9781954  0.9844191  0.4905623

 Al 
  0.9939322  0.2447045  0.7534367

 Al 
  0.2437181  0.0010767  0.7303562

 Al 
  0.2493602  0.2780989  0.4982167

 Al 
  0.0010742  0.5111133  0.4998317

 Al 
  0.9998465  0.7556569  0.7556829

 Al 
  0.2696673  0.5105218  0.7506831

 Al 
  0.2582904  0.7662628  0.5075776

 Al 
  0.5057807  0.4981399  0.9888223

 Al 
  0.4942614  0.7520011  0.2532152

 Al 
  0.7474271  0.5103002  0.2723714

 Al 
  0.7422887  0.7345218  0.0022066

 Al 
  0.5080937  0.0065653  0.5006584

 Al 
  0.5033130  0.2518860  0.7397938

 Al 
  0.7502785  0.9997438  0.7361282

 Al 
  0.7541755  0.2453950  0.4961301

 Al 
  0.5107136  0.5043129  0.4910388

 Al 
  0.4992203  0.7666638  0.7327781

 Al 
  0.7518650  0.4974580  0.7424731

 Al 
  0.7592990  0.7458344  0.5066073

