32 
charge = 0 
 Al 
  0.0032993  0.9846121  0.0092273

 Al 
  0.9700411  0.2409707  0.2390711

 Al 
  0.2590602  0.0064452  0.2648953

 Al 
  0.2584637  0.2476437  0.0101332

 Al 
  0.4993193  0.9849240  0.0013366

 Al 
  0.5152740  0.2624598  0.2509207

 Al 
  0.7530778  0.9861740  0.2528575

 Al 
  0.7422776  0.2462997  0.9997178

 Al 
  0.9682936  0.4869722  0.9952403

 Al 
  0.0127246  0.7322806  0.2533587

 Al 
  0.2586332  0.5050715  0.2561136

 Al 
  0.2447775  0.7523204  0.0140797

 Al 
  0.9773093  0.9861108  0.4882630

 Al 
  0.9952762  0.2439966  0.7510346

 Al 
  0.2454124  0.0017734  0.7337718

 Al 
  0.2472167  0.2772264  0.5018514

 Al 
  0.0019430  0.5104178  0.5004901

 Al 
  0.0005656  0.7553760  0.7545419

 Al 
  0.2681390  0.5098349  0.7507388

 Al 
  0.2592347  0.7638335  0.5081716

 Al 
  0.5034243  0.4981325  0.9893099

 Al 
  0.4946711  0.7503106  0.2537610

 Al 
  0.7466462  0.5101641  0.2726264

 Al 
  0.7410759  0.7343325  0.0009542

 Al 
  0.5043278  0.0043018  0.5054601

 Al 
  0.5049243  0.2537498  0.7401428

 Al 
  0.7485471  0.0020160  0.7343250

 Al 
  0.7543575  0.2460002  0.4969494

 Al 
  0.5140005  0.5067571  0.4902616

 Al 
  0.4963034  0.7664967  0.7347211

 Al 
  0.7508465  0.4977922  0.7432664

 Al 
  0.7605341  0.7452020  0.5024071

