32 
charge = 0 
 Al 
  0.0032313  0.9846765  0.0087954

 Al 
  0.9703604  0.2416130  0.2387283

 Al 
  0.2590293  0.0065158  0.2650475

 Al 
  0.2585243  0.2482080  0.0100799

 Al 
  0.4993181  0.9852841  0.0007537

 Al 
  0.5160462  0.2629127  0.2511584

 Al 
  0.7523105  0.9856418  0.2541124

 Al 
  0.7416984  0.2460559  0.9993713

 Al 
  0.9673952  0.4866925  0.9959569

 Al 
  0.0125006  0.7319502  0.2534974

 Al 
  0.2585070  0.5044651  0.2562237

 Al 
  0.2448406  0.7519256  0.0144473

 Al 
  0.9774689  0.9856567  0.4888248

 Al 
  0.9949297  0.2441686  0.7516410

 Al 
  0.2449854  0.0015717  0.7328870

 Al 
  0.2477476  0.2774838  0.5009455

 Al 
  0.0017177  0.5106183  0.5003082

 Al 
  0.0003923  0.7554676  0.7548253

 Al 
  0.2685498  0.5100057  0.7507227

 Al 
  0.2590181  0.7644758  0.5080528

 Al 
  0.5040159  0.4981251  0.9891676

 Al 
  0.4945535  0.7507264  0.2536285

 Al 
  0.7468145  0.5102087  0.2726202

 Al 
  0.7413692  0.7343473  0.0012710

 Al 
  0.5052695  0.0048562  0.5042919

 Al 
  0.5045307  0.2532870  0.7400438

 Al 
  0.7489790  0.0014554  0.7347260

 Al 
  0.7543080  0.2458331  0.4967365

 Al 
  0.5132159  0.5061482  0.4904126

 Al 
  0.4970026  0.7665697  0.7341963

 Al 
  0.7511113  0.4977031  0.7430758

 Al 
  0.7602594  0.7453505  0.5034503

