32 
charge = 0 
 Al 
  0.0014022  0.9864029  0.0037288

 Al 
  0.9763725  0.2492934  0.2362680

 Al 
  0.2578437  0.0080169  0.2662257

 Al 
  0.2584402  0.2547869  0.0087298

 Al 
  0.4994728  0.9903879  0.9936897

 Al 
  0.5234951  0.2663915  0.2535815

 Al 
  0.7425041  0.9795332  0.2665598

 Al 
  0.7342669  0.2416427  0.9945089

 Al 
  0.9600441  0.4845008  0.0047015

 Al 
  0.0084563  0.7298797  0.2545122

 Al 
  0.2566866  0.4972996  0.2565046

 Al 
  0.2464519  0.7466004  0.0172293

 Al 
  0.9824662  0.9822249  0.4957477

 Al 
  0.9916316  0.2464890  0.7581172

 Al 
  0.2403854  0.0009195  0.7244196

 Al 
  0.2538439  0.2781224  0.4906886

 Al 
  0.9997166  0.5113509  0.4993107

 Al 
  0.9982736  0.7551012  0.7582001

 Al 
  0.2716573  0.5120922  0.7505953

 Al 
  0.2556470  0.7696995  0.5050455

 Al 
  0.5107222  0.4986288  0.9886144

 Al 
  0.4939372  0.7555072  0.2520110

 Al 
  0.7498243  0.5103893  0.2699124

 Al 
  0.7451475  0.7363324  0.0047498

 Al 
  0.5157678  0.0116281  0.4896763

 Al 
  0.4995743  0.2477390  0.7394238

 Al 
  0.7538562  0.9948864  0.7418841

 Al 
  0.7542783  0.2448072  0.4949322

 Al 
  0.5026422  0.4994134  0.4942688

 Al 
  0.5063499  0.7658396  0.7301421

 Al 
  0.7535394  0.4968690  0.7405326

 Al 
  0.7552980  0.7472229  0.5154893

