32 
charge = 0 
 Al 
  0.0023922  0.9854339  0.0057943

 Al 
  0.9733367  0.2461227  0.2368880

 Al 
  0.2585664  0.0072063  0.2659324

 Al 
  0.2586753  0.2520506  0.0094636

 Al 
  0.4993886  0.9880637  0.9966833

 Al 
  0.5208071  0.2654064  0.2527127

 Al 
  0.7466524  0.9819972  0.2620044

 Al 
  0.7374882  0.2438790  0.9967056

 Al 
  0.9623199  0.4851443  0.0009987

 Al 
  0.0104648  0.7302572  0.2542349

 Al 
  0.2575479  0.5002327  0.2566940

 Al 
  0.2455918  0.7489840  0.0164373

 Al 
  0.9796470  0.9831642  0.4928283

 Al 
  0.9927912  0.2454322  0.7556111

 Al 
  0.2421724  0.0007326  0.7274627

 Al 
  0.2513935  0.2784949  0.4948072

 Al 
  0.0003626  0.5114734  0.4994146

 Al 
  0.9991337  0.7556656  0.7567757

 Al 
  0.2708022  0.5111925  0.7506448

 Al 
  0.2572249  0.7681501  0.5067101

 Al 
  0.5079810  0.4982538  0.9885699

 Al 
  0.4940201  0.7536124  0.2526781

 Al 
  0.7483899  0.5103572  0.2715992

 Al 
  0.7435164  0.7350403  0.0033550

 Al 
  0.5116021  0.0087793  0.4958764

 Al 
  0.5017128  0.2500891  0.7395723

 Al 
  0.7518959  0.9975632  0.7383137

 Al 
  0.7540889  0.2449916  0.4954705

 Al 
  0.5072954  0.5020457  0.4921885

 Al 
  0.5022375  0.7665177  0.7313277

 Al 
  0.7527103  0.4971895  0.7416526

 Al 
  0.7577880  0.7464754  0.5105948

