32 
charge = 0 
 Al 
  0.0022363  0.9855787  0.0054081

 Al 
  0.9738268  0.2467118  0.2367222

 Al 
  0.2584662  0.0073288  0.2660153

 Al 
  0.2586580  0.2525494  0.0093510

 Al 
  0.4994047  0.9884647  0.9961438

 Al 
  0.5213504  0.2656428  0.2528934

 Al 
  0.7458876  0.9815343  0.2629214

 Al 
  0.7369115  0.2435226  0.9963232

 Al 
  0.9618088  0.4849933  0.0016707

 Al 
  0.0101356  0.7301235  0.2543030

 Al 
  0.2574056  0.4996844  0.2567051

 Al 
  0.2457292  0.7485694  0.0166254

 Al 
  0.9800740  0.9829291  0.4933617

 Al 
  0.9925511  0.2456128  0.7560950

 Al 
  0.2418284  0.0007066  0.7268464

 Al 
  0.2518576  0.2785122  0.4940300

 Al 
  0.0002190  0.5115056  0.4993540

 Al 
  0.9989691  0.7556210  0.7570318

 Al 
  0.2710138  0.5113522  0.7506361

 Al 
  0.2569551  0.7685164  0.5064588

 Al 
  0.5084872  0.4982996  0.9885451

 Al 
  0.4939854  0.7539775  0.2525531

 Al 
  0.7486374  0.5103646  0.2713504

 Al 
  0.7438097  0.7352161  0.0036162

 Al 
  0.5123979  0.0092990  0.4947465

 Al 
  0.5013316  0.2496671  0.7395339

 Al 
  0.7522635  0.9970608  0.7388929

 Al 
  0.7540914  0.2449260  0.4953418

 Al 
  0.5064675  0.5015358  0.4925127

 Al 
  0.5029689  0.7664398  0.7310504

 Al 
  0.7528848  0.4971313  0.7414534

 Al 
  0.7573845  0.7466227  0.5115118

