32 
charge = 0 
 Al 
  0.0015742  0.9862259  0.0040307

 Al 
  0.9758527  0.2488268  0.2363101

 Al 
  0.2579835  0.0078697  0.2662121

 Al 
  0.2585008  0.2543723  0.0088609

 Al 
  0.4994641  0.9900166  0.9941488

 Al 
  0.5231399  0.2662962  0.2534738

 Al 
  0.7431167  0.9798921  0.2659559

 Al 
  0.7347631  0.2420301  0.9948579

 Al 
  0.9602978  0.4845664  0.0041396

 Al 
  0.0087941  0.7298735  0.2544849

 Al 
  0.2568313  0.4977278  0.2565789

 Al 
  0.2463034  0.7469791  0.0171514

 Al 
  0.9819601  0.9823066  0.4953084

 Al 
  0.9917789  0.2463158  0.7577632

 Al 
  0.2406366  0.0008329  0.7248218

 Al 
  0.2534912  0.2782647  0.4912851

 Al 
  0.9997884  0.5114227  0.4992847

 Al 
  0.9983936  0.7552436  0.7579798

 Al 
  0.2715819  0.5119511  0.7506039

 Al 
  0.2559019  0.7695461  0.5053475

 Al 
  0.5103126  0.4985496  0.9885761

 Al 
  0.4939322  0.7552423  0.2521088

 Al 
  0.7495990  0.5103844  0.2702181

 Al 
  0.7448975  0.7360787  0.0045443

 Al 
  0.5151762  0.0111987  0.4906081

 Al 
  0.4999072  0.2481016  0.7394374

 Al 
  0.7535691  0.9952750  0.7412752

 Al 
  0.7542164  0.2448035  0.4949829

 Al 
  0.5033625  0.4997810  0.4939038

 Al 
  0.5057138  0.7659844  0.7302634

 Al 
  0.7534367  0.4969185  0.7407059

 Al 
  0.7557213  0.7471214  0.5147753

