32 
charge = 0 
 Al 
  0.0017450  0.9860539  0.0043488

 Al 
  0.9753379  0.2483355  0.2363757

 Al 
  0.2581172  0.0077273  0.2661848

 Al 
  0.2585516  0.2539416  0.0089884

 Al 
  0.4994518  0.9896379  0.9946228

 Al 
  0.5227489  0.2661762  0.2533513

 Al 
  0.7437614  0.9802708  0.2652913

 Al 
  0.7352767  0.2424113  0.9952143

 Al 
  0.9605985  0.4846468  0.0035555

 Al 
  0.0091307  0.7298946  0.2544515

 Al 
  0.2569761  0.4981795  0.2566358

 Al 
  0.2461574  0.7473652  0.0170524

 Al 
  0.9814663  0.9824167  0.4948505

 Al 
  0.9919447  0.2461425  0.7573858

 Al 
  0.2409064  0.0007673  0.7252636

 Al 
  0.2531174  0.2783748  0.4919162

 Al 
  0.9998750  0.5114747  0.4992773

 Al 
  0.9985236  0.7553673  0.7577533

 Al 
  0.2714804  0.5118076  0.7506114

 Al 
  0.2561606  0.7693530  0.5056408

 Al 
  0.5098844  0.4984766  0.9885488

 Al 
  0.4939335  0.7549564  0.2522115

 Al 
  0.7493664  0.5103794  0.2705163

 Al 
  0.7446401  0.7358398  0.0043290

 Al 
  0.5145438  0.0107519  0.4915821

 Al 
  0.5002475  0.2484741  0.7394547

 Al 
  0.7532684  0.9956859  0.7406725

 Al 
  0.7541669  0.2448134  0.4950485

 Al 
  0.5041050  0.5001770  0.4935461

 Al 
  0.5050579  0.7661180  0.7304131

 Al 
  0.7533216  0.4969704  0.7408841

 Al 
  0.7561420  0.7470113  0.5140216

