32 
charge = 0 
 Al 
  0.0012289  0.9865861  0.0034441

 Al 
  0.9768972  0.2497376  0.2362482

 Al 
  0.2576952  0.0081692  0.2662232

 Al 
  0.2583733  0.2551879  0.0085936

 Al 
  0.4994802  0.9907542  0.9932454

 Al 
  0.5238181  0.2664621  0.2536743

 Al 
  0.7419261  0.9791941  0.2671056

 Al 
  0.7337867  0.2412492  0.9941661

 Al 
  0.9598374  0.4844513  0.0052423

 Al 
  0.0081184  0.7299131  0.2545307

 Al 
  0.2565393  0.4968950  0.2564130

 Al 
  0.2466017  0.7462279  0.0172887

 Al 
  0.9829848  0.9821717  0.4961685

 Al 
  0.9915004  0.2466623  0.7584476

 Al 
  0.2401527  0.0010272  0.7240557

 Al 
  0.2541743  0.2779491  0.4901255

 Al 
  0.9996584  0.5112606  0.4993515

 Al 
  0.9981622  0.7549379  0.7584154

 Al 
  0.2717081  0.5122308  0.7505866

 Al 
  0.2553970  0.7698134  0.5047337

 Al 
  0.5111158  0.4987142  0.9886639

 Al 
  0.4939496  0.7557522  0.2519182

 Al 
  0.7500433  0.5103943  0.2696005

 Al 
  0.7453876  0.7366021  0.0049465

 Al 
  0.5163185  0.0120415  0.4887827

 Al 
  0.4992500  0.2473863  0.7394139

 Al 
  0.7541273  0.9945201  0.7424979

 Al 
  0.7543537  0.2448233  0.4948975

 Al 
  0.5019442  0.4990731  0.4946376

 Al 
  0.5069662  0.7656836  0.7300505

 Al 
  0.7536285  0.4968182  0.7403656

 Al 
  0.7548723  0.7473145  0.5161638

