32 
charge = 0 
 Al 
  0.0025420  0.9852965  0.0061977

 Al 
  0.9728578  0.2455138  0.2370798

 Al 
  0.2586592  0.0070888  0.2658346

 Al 
  0.2586840  0.2515358  0.0095713

 Al 
  0.4993726  0.9876590  0.9972390

 Al 
  0.5202255  0.2651366  0.2525172

 Al 
  0.7474407  0.9824798  0.2610242

 Al 
  0.7380773  0.2442280  0.9970917

 Al 
  0.9628892  0.4853138  0.0003082

 Al 
  0.0107891  0.7304193  0.2541582

 Al 
  0.2576890  0.5008032  0.2566680

 Al 
  0.2454606  0.7494047  0.0162232

 Al 
  0.9792424  0.9834303  0.4922801

 Al 
  0.9930511  0.2452515  0.7551012

 Al 
  0.2425363  0.0007834  0.7281236

 Al 
  0.2509096  0.2784441  0.4956178

 Al 
  0.0005210  0.5114165  0.4994926

 Al 
  0.9993045  0.7556915  0.7565121

 Al 
  0.2705609  0.5110292  0.7506534

 Al 
  0.2574947  0.7677405  0.5069489

 Al 
  0.5074563  0.4982154  0.9886107

 Al 
  0.4940647  0.7532288  0.2528068

 Al 
  0.7481424  0.5103473  0.2718294

 Al 
  0.7432157  0.7348832  0.0030828

 Al 
  0.5107705  0.0082434  0.4970398

 Al 
  0.5021026  0.2505235  0.7396156

 Al 
  0.7515111  0.9980855  0.7377444

 Al 
  0.7540976  0.2450708  0.4956153

 Al 
  0.5081394  0.5025803  0.4918754

 Al 
  0.5014925  0.7665809  0.7316395

 Al 
  0.7525197  0.4972514  0.7418544

 Al 
  0.7581828  0.7463220  0.5096418

