32 
charge = 0 
 Al 
  0.9993775  0.9889189  0.0013353

 Al 
  0.9827719  0.2530877  0.2373694

 Al 
  0.2556222  0.0100379  0.2652554

 Al 
  0.2572558  0.2587186  0.0068672

 Al 
  0.4992302  0.9942664  0.9892518

 Al 
  0.5255371  0.2660252  0.2537993

 Al 
  0.7380748  0.9766076  0.2696414

 Al 
  0.7296594  0.2367804  0.9908915

 Al 
  0.9599463  0.4847359  0.0097817

 Al 
  0.0045233  0.7317794  0.2544466

 Al 
  0.2548624  0.4939706  0.2544206

 Al 
  0.2482092  0.7426155  0.0169125

 Al 
  0.9888731  0.9830528  0.4996300

 Al 
  0.9910190  0.2485186  0.7607643

 Al 
  0.2387011  0.0032696  0.7222254

 Al 
  0.2564774  0.2742253  0.4859475

 Al 
  0.9997574  0.5093015  0.5006398

 Al 
  0.9975707  0.7520432  0.7604586

 Al 
  0.2709334  0.5135476  0.7504851

 Al 
  0.2530221  0.7689124  0.5008935

 Al 
  0.5144894  0.5000384  0.9897938

 Al 
  0.4943295  0.7571704  0.2512153

 Al 
  0.7517549  0.5104784  0.2662096

 Al 
  0.7474766  0.7403780  0.0065702

 Al 
  0.5197168  0.0154930  0.4817534

 Al 
  0.4961933  0.2441166  0.7393805

 Al 
  0.7563140  0.9918964  0.7492723

 Al 
  0.7559700  0.2457032  0.4953963

 Al 
  0.4958665  0.4969531  0.4987426

 Al 
  0.5121813  0.7634375  0.7306346

 Al 
  0.7538575  0.4961611  0.7389820

 Al 
  0.7504245  0.7477575  0.5210336

