32 
charge = 0 
 Al 
  0.0008762  0.9869747  0.0029206

 Al 
  0.9779677  0.2505569  0.2362804

 Al 
  0.2573709  0.0084884  0.2661737

 Al 
  0.2582162  0.2559514  0.0083090

 Al 
  0.4994827  0.9914720  0.9923939

 Al 
  0.5243713  0.2665351  0.2538166

 Al 
  0.7408742  0.9785679  0.2680288

 Al 
  0.7328697  0.2404411  0.9934954

 Al 
  0.9595503  0.4843968  0.0062658

 Al 
  0.0074378  0.7300592  0.2545518

 Al 
  0.2562398  0.4961549  0.2561767

 Al 
  0.2469049  0.7454977  0.0173506

 Al 
  0.9840540  0.9821432  0.4969605

 Al 
  0.9912888  0.2470076  0.7590441

 Al 
  0.2397381  0.0013044  0.7234382

 Al 
  0.2547745  0.2775036  0.4890921

 Al 
  0.9995792  0.5110217  0.4994802

 Al 
  0.9979692  0.7545505  0.7588312

 Al 
  0.2717390  0.5124994  0.7505680

 Al 
  0.2549057  0.7699272  0.5040765

 Al 
  0.5118596  0.4989085  0.9887976

 Al 
  0.4939904  0.7561829  0.2517487

 Al 
  0.7504567  0.5104067  0.2689607

 Al 
  0.7458467  0.7371900  0.0053141

 Al 
  0.5173024  0.0128199  0.4871133

 Al 
  0.4986226  0.2467056  0.7394003

 Al 
  0.7546334  0.9938518  0.7437466

 Al 
  0.7545468  0.2448926  0.4948740

 Al 
  0.5006114  0.4984679  0.4953938

 Al 
  0.5081394  0.7653371  0.7299490

 Al 
  0.7537684  0.4967130  0.7400475

 Al 
  0.7540147  0.7474692  0.5174001

