32 
charge = 0 
 Al 
  0.9997698  0.9883570  0.0016633

 Al 
  0.9814564  0.2525519  0.2369412

 Al 
  0.2561420  0.0096010  0.2656094

 Al 
  0.2575516  0.2580454  0.0072905

 Al 
  0.4993466  0.9935647  0.9900228

 Al 
  0.5253861  0.2662653  0.2538946

 Al 
  0.7385538  0.9770333  0.2695448

 Al 
  0.7304069  0.2377815  0.9915462

 Al 
  0.9596208  0.4845664  0.0089686

 Al 
  0.0053005  0.7311618  0.2544961

 Al 
  0.2552460  0.4944136  0.2549960

 Al 
  0.2478627  0.7433518  0.0171254

 Al 
  0.9875699  0.9826692  0.4990186

 Al 
  0.9910029  0.2481065  0.7604178

 Al 
  0.2388694  0.0026422  0.7223529

 Al 
  0.2561470  0.2753007  0.4866108

 Al 
  0.9996386  0.5098559  0.5002475

 Al 
  0.9976140  0.7528365  0.7600416

 Al 
  0.2712799  0.5132815  0.7505074

 Al 
  0.2534899  0.7693914  0.5017945

 Al 
  0.5138595  0.4996931  0.9894683

 Al 
  0.4942218  0.7570306  0.2513304

 Al 
  0.7514863  0.5104586  0.2669311

 Al 
  0.7470868  0.7394275  0.0062757

 Al 
  0.5193394  0.0148730  0.4829154

 Al 
  0.4968108  0.2447651  0.7393867

 Al 
  0.7559267  0.9922912  0.7477761

 Al 
  0.7555010  0.2454148  0.4951686

 Al 
  0.4969927  0.4972081  0.4978405

 Al 
  0.5112556  0.7640005  0.7302893

 Al 
  0.7539045  0.4963306  0.7392196

 Al 
  0.7513576  0.7477315  0.5203072

