32 
charge = 0 
 Al 
  0.0010532  0.9867766  0.0031743

 Al 
  0.9774281  0.2501584  0.2362532

 Al 
  0.2575368  0.0083263  0.2662059

 Al 
  0.2582991  0.2555752  0.0084538

 Al 
  0.4994839  0.9911155  0.9928135

 Al 
  0.5241102  0.2665103  0.2537523

 Al 
  0.7413829  0.9788723  0.2675944

 Al 
  0.7333214  0.2408495  0.9938283

 Al 
  0.9596728  0.4844166  0.0057633

 Al 
  0.0077781  0.7299725  0.2545443

 Al 
  0.2563908  0.4965138  0.2563041

 Al 
  0.2467526  0.7458604  0.0173284

 Al 
  0.9835132  0.9821444  0.4965732

 Al 
  0.9913866  0.2468343  0.7587558

 Al 
  0.2399374  0.0011546  0.7237303

 Al 
  0.2544849  0.2777424  0.4895933

 Al 
  0.9996126  0.5111504  0.4994084

 Al 
  0.9980607  0.7547547  0.7586246

 Al 
  0.2717353  0.5123657  0.7505779

 Al 
  0.2551495  0.7698889  0.5044107

 Al 
  0.5114945  0.4988070  0.9887246

 Al 
  0.4939669  0.7559774  0.2518316

 Al 
  0.7502537  0.5104005  0.2692837

 Al 
  0.7456203  0.7368880  0.0051334

 Al 
  0.5168296  0.0124375  0.4879301

 Al 
  0.4989345  0.2470422  0.7394065

 Al 
  0.7543859  0.9941760  0.7431192

 Al 
  0.7544428  0.2448517  0.4948777

 Al 
  0.5012685  0.4987575  0.4950126

 Al 
  0.5075627  0.7655153  0.7299861

 Al 
  0.7537040  0.4967662  0.7402035

 Al 
  0.7544441  0.7473962  0.5167999

