32 
charge = 0 
 Al 
  0.0006980  0.9871801  0.0026793

 Al 
  0.9785159  0.2509344  0.2363311

 Al 
  0.2571940  0.0086567  0.2661242

 Al 
  0.2581258  0.2563165  0.0081580

 Al 
  0.4994765  0.9918247  0.9919831

 Al 
  0.5246040  0.2665388  0.2538649

 Al 
  0.7404002  0.9782795  0.2684100

 Al 
  0.7324316  0.2400252  0.9931662

 Al 
  0.9594674  0.4843906  0.0067509

 Al 
  0.0070937  0.7301718  0.2545530

 Al 
  0.2560863  0.4958170  0.2560306

 Al 
  0.2470583  0.7451389  0.0173556

 Al 
  0.9846072  0.9821680  0.4973343

 Al 
  0.9912046  0.2471833  0.7593139

 Al 
  0.2395550  0.0014739  0.7231795

 Al 
  0.2550468  0.2772301  0.4886181

 Al 
  0.9995594  0.5108757  0.4995681

 Al 
  0.9978862  0.7543253  0.7590342

 Al 
  0.2717192  0.5126306  0.7505594

 Al 
  0.2546656  0.7699285  0.5037325

 Al 
  0.5122135  0.4990161  0.9888805

 Al 
  0.4940176  0.7563685  0.2516695

 Al 
  0.7506510  0.5104141  0.2686340

 Al 
  0.7460646  0.7375105  0.0054861

 Al 
  0.5177355  0.0131887  0.4863324

 Al 
  0.4983169  0.2463752  0.7393966

 Al 
  0.7548686  0.9935473  0.7443839

 Al 
  0.7546644  0.2449470  0.4948839

 Al 
  0.4999728  0.4982031  0.4957811

 Al 
  0.5086988  0.7651453  0.7299379

 Al 
  0.7538204  0.4966586  0.7398978

 Al 
  0.7535827  0.7475335  0.5179657

