32 
charge = 0 
 Al 
  0.9995755  0.9886293  0.0014937

 Al 
  0.9821011  0.2528266  0.2371405

 Al 
  0.2558908  0.0098151  0.2654448

 Al 
  0.2574093  0.2583820  0.0070850

 Al 
  0.4992946  0.9939137  0.9896379

 Al 
  0.5254727  0.2661539  0.2538550

 Al 
  0.7382951  0.9768155  0.2696191

 Al 
  0.7300295  0.2372890  0.9912207

 Al 
  0.9597644  0.4846431  0.0093795

 Al 
  0.0049181  0.7314539  0.2544726

 Al 
  0.2550579  0.4941847  0.2547213

 Al 
  0.2480335  0.7429867  0.0170276

 Al 
  0.9882122  0.9828474  0.4993280

 Al 
  0.9910042  0.2483083  0.7605972

 Al 
  0.2387778  0.0029442  0.7222749

 Al 
  0.2563190  0.2747884  0.4862705

 Al 
  0.9996918  0.5095899  0.5004344

 Al 
  0.9975880  0.7524566  0.7602483

 Al 
  0.2711202  0.5134139  0.7504963

 Al 
  0.2532560  0.7691723  0.5013551

 Al 
  0.5141750  0.4998602  0.9896243

 Al 
  0.4942738  0.7571086  0.2512722

 Al 
  0.7516249  0.5104685  0.2665734

 Al 
  0.7472823  0.7398879  0.0064229

 Al 
  0.5195473  0.0151861  0.4823202

 Al 
  0.4965051  0.2444421  0.7393842

 Al 
  0.7561210  0.9920870  0.7485124

 Al 
  0.7557250  0.2455510  0.4952737

 Al 
  0.4964272  0.4970707  0.4982847

 Al 
  0.5117247  0.7637270  0.7304453

 Al 
  0.7538872  0.4962502  0.7390983

 Al 
  0.7508948  0.7477476  0.5206859

