32 
charge = 0 
 Al 
  0.9991745  0.9892245  0.0011868

 Al 
  0.9834711  0.2533340  0.2376281

 Al 
  0.2553364  0.0102718  0.2650401

 Al 
  0.2570925  0.2590565  0.0066333

 Al 
  0.4991535  0.9946228  0.9888644

 Al 
  0.5255792  0.2658767  0.2537275

 Al 
  0.7378966  0.9764083  0.2696104

 Al 
  0.7292956  0.2362519  0.9905574

 Al 
  0.9601678  0.4848436  0.0101765

 Al 
  0.0041161  0.7321432  0.2544181

 Al 
  0.2546569  0.4937726  0.2540926

 Al 
  0.2483899  0.7422380  0.0167764

 Al 
  0.9895562  0.9832880  0.4999257

 Al 
  0.9910487  0.2487364  0.7609203

 Al 
  0.2386404  0.0036223  0.7222068

 Al 
  0.2566222  0.2736115  0.4856406

 Al 
  0.9998366  0.5089897  0.5008638

 Al 
  0.9975645  0.7515965  0.7606727

 Al 
  0.2707193  0.5136837  0.7504740

 Al 
  0.2527858  0.7686117  0.5004084

 Al 
  0.5148025  0.5002314  0.9899782

 Al 
  0.4943877  0.7572125  0.2511608

 Al 
  0.7518724  0.5104871  0.2658383

 Al 
  0.7476709  0.7409014  0.0067150

 Al 
  0.5198468  0.0157962  0.4812126

 Al 
  0.4958764  0.2437862  0.7393755

 Al 
  0.7565046  0.9917195  0.7500619

 Al 
  0.7562386  0.2458715  0.4955373

 Al 
  0.4953109  0.4968554  0.4992154

 Al 
  0.5126256  0.7631281  0.7308574

 Al 
  0.7538154  0.4960658  0.7388706

 Al 
  0.7499455  0.7477600  0.5213517

