32 
charge = 0 
 Al 
  0.9987538  0.9898941  0.0009207

 Al 
  0.9849649  0.2537869  0.2382444

 Al 
  0.2547027  0.0107717  0.2645216

 Al 
  0.2567274  0.2597446  0.0061160

 Al 
  0.4989530  0.9953492  0.9880761

 Al 
  0.5255965  0.2655215  0.2535283

 Al 
  0.7376702  0.9760346  0.2693765

 Al 
  0.7285902  0.2351332  0.9898767

 Al 
  0.9607383  0.4851072  0.0109475

 Al 
  0.0032560  0.7329934  0.2543525

 Al 
  0.2542114  0.4934224  0.2533501

 Al 
  0.2487711  0.7414571  0.0164447

 Al 
  0.9909943  0.9838486  0.5005037

 Al 
  0.9911551  0.2492067  0.7611987

 Al 
  0.2385723  0.0044082  0.7222576

 Al 
  0.2568648  0.2722118  0.4850738

 Al 
  0.0000384  0.5082880  0.5013749

 Al 
  0.9975830  0.7505891  0.7611170

 Al 
  0.2702032  0.5139609  0.7504505

 Al 
  0.2523043  0.7678791  0.4993627

 Al 
  0.5154349  0.5006609  0.9903965

 Al 
  0.4945164  0.7572397  0.2510569

 Al 
  0.7520754  0.5105044  0.2650723

 Al 
  0.7480595  0.7420586  0.0070046

 Al 
  0.5199804  0.0163915  0.4802126

 Al 
  0.4952156  0.2431080  0.7393594

 Al 
  0.7568821  0.9914027  0.7517313

 Al 
  0.7568487  0.2462638  0.4958777

 Al 
  0.4942057  0.4967180  0.5002141

 Al 
  0.5134771  0.7624486  0.7314155

 Al 
  0.7536929  0.4958443  0.7386639

 Al 
  0.7489604  0.7477464  0.5218962

