32 
charge = 0 
 Al 
  0.9955064  0.9981981  0.0007685

 Al 
  0.0010532  0.2551582  0.2480273

 Al 
  0.2469172  0.0156317  0.2552893

 Al 
  0.2521769  0.2654411  0.9990805

 Al 
  0.4940250  0.0009430  0.9818511

 Al 
  0.5224395  0.2603176  0.2492203

 Al 
  0.7432330  0.9749678  0.2592792

 Al 
  0.7252512  0.2248973  0.9845639

 Al 
  0.9713987  0.4894894  0.0155240

 Al 
  0.9945201  0.7457081  0.2538958

 Al 
  0.2491585  0.4930140  0.2439978

 Al 
  0.2524739  0.7346270  0.0106740

 Al 
  0.0044565  0.9925338  0.5042572

 Al 
  0.9943344  0.2546285  0.7618472

 Al 
  0.2409893  0.0134783  0.7274504

 Al 
  0.2564774  0.2533389  0.4828585

 Al 
  0.0037288  0.4994456  0.5079179

 Al 
  0.9993490  0.7375192  0.7651490

 Al 
  0.2615489  0.5160462  0.7504492

 Al 
  0.2483540  0.7559490  0.4878818

 Al 
  0.5205373  0.5059997  0.9959606

 Al 
  0.4958777  0.7545369  0.2504826

 Al 
  0.7515247  0.5101493  0.2587706

 Al 
  0.7510457  0.7562089  0.0092322

 Al 
  0.5146466  0.0200299  0.4771892

 Al 
  0.4890946  0.2375811  0.7387605

 Al 
  0.7599599  0.9904448  0.7677578

 Al 
  0.7647505  0.2517227  0.5011460

 Al 
  0.4863460  0.4982464  0.5096839

 Al 
  0.5169769  0.7542721  0.7421006

 Al 
  0.7506881  0.4923779  0.7385340

 Al 
  0.7411613  0.7470967  0.5204000

