32 
charge = 0 
 Al 
  0.9960633  0.9958690  0.0004369

 Al 
  0.9969197  0.2552312  0.2450955

 Al 
  0.2490273  0.0145438  0.2582743

 Al 
  0.2534231  0.2642023  0.0011497

 Al 
  0.4958158  0.9998428  0.9831110

 Al 
  0.5236770  0.2618051  0.2506089

 Al 
  0.7407950  0.9747537  0.2627568

 Al 
  0.7254628  0.2270989  0.9855948

 Al 
  0.9680610  0.4881726  0.0148371

 Al 
  0.9966895  0.7419707  0.2539268

 Al 
  0.2504938  0.4927132  0.2464717

 Al 
  0.2515841  0.7361232  0.0124783

 Al 
  0.0013415  0.9899696  0.5035728

 Al 
  0.9932293  0.2531620  0.7619437

 Al 
  0.2399349  0.0112037  0.7254653

 Al 
  0.2569464  0.2586171  0.4829711

 Al 
  0.0025766  0.5018403  0.5061705

 Al 
  0.9986993  0.7411279  0.7642283

 Al 
  0.2642072  0.5156812  0.7503960

 Al 
  0.2492240  0.7595057  0.4908297

 Al 
  0.5194322  0.5045629  0.9944075

 Al 
  0.4955373  0.7556049  0.2505668

 Al 
  0.7520296  0.5103633  0.2600651

 Al 
  0.7504270  0.7523996  0.0087657

 Al 
  0.5168234  0.0194928  0.4770036

 Al 
  0.4905203  0.2387060  0.7389832

 Al 
  0.7592471  0.9904646  0.7640785

 Al 
  0.7626330  0.2502054  0.4996324

 Al 
  0.4878694  0.4975373  0.5074910

 Al 
  0.5169051  0.7565022  0.7386540

 Al 
  0.7516955  0.4934483  0.7382159

 Al 
  0.7427070  0.7472786  0.5218158

