32 
charge = 0 
 Al 
  0.9954297  0.9987463  0.0008799

 Al 
  0.0019739  0.2551037  0.2487253

 Al 
  0.2464408  0.0158445  0.2545394

 Al 
  0.2518910  0.2656923  0.9985842

 Al 
  0.4935511  0.0011522  0.9816123

 Al 
  0.5221177  0.2599723  0.2488812

 Al 
  0.7438642  0.9750879  0.2584328

 Al 
  0.7252785  0.2244753  0.9843782

 Al 
  0.9722093  0.4898062  0.0156304

 Al 
  0.9940461  0.7465893  0.2539033

 Al 
  0.2488590  0.4931179  0.2434508

 Al 
  0.2526645  0.7343275  0.0102322

 Al 
  0.0051111  0.9931427  0.5043872

 Al 
  0.9946154  0.2549639  0.7618051

 Al 
  0.2412702  0.0139634  0.7279714

 Al 
  0.2563400  0.2521286  0.4828771

 Al 
  0.0040097  0.4989035  0.5083053

 Al 
  0.9995124  0.7366925  0.7653421

 Al 
  0.2609079  0.5161032  0.7504690

 Al 
  0.2481721  0.7551074  0.4872271

 Al 
  0.5207638  0.5063215  0.9963195

 Al 
  0.4959519  0.7542634  0.2504690

 Al 
  0.7513774  0.5100824  0.2585194

 Al 
  0.7511695  0.7570640  0.0093250

 Al 
  0.5140921  0.0201005  0.4773167

 Al 
  0.4887963  0.2373694  0.7387048

 Al 
  0.7601158  0.9904534  0.7685065

 Al 
  0.7652195  0.2520643  0.5014913

 Al 
  0.4860514  0.4984283  0.5101406

 Al 
  0.5169002  0.7537572  0.7429496

 Al 
  0.7504344  0.4921180  0.7386516

 Al 
  0.7408680  0.7470571  0.5199743

