32 
charge = 0 
 Al 
  0.9964630  0.9946847  0.0003601

 Al 
  0.9947020  0.2551643  0.2436365

 Al 
  0.2501361  0.0138966  0.2596815

 Al 
  0.2540716  0.2634758  0.0021756

 Al 
  0.4966029  0.9991572  0.9838882

 Al 
  0.5242240  0.2625650  0.2512772

 Al 
  0.7397381  0.9747983  0.2644151

 Al 
  0.7257636  0.2284330  0.9862519

 Al 
  0.9664361  0.4875179  0.0143384

 Al 
  0.9978776  0.7400896  0.2539763

 Al 
  0.2512017  0.4926538  0.2478009

 Al 
  0.2510891  0.7370068  0.0133508

 Al 
  0.9995681  0.9886837  0.5031397

 Al 
  0.9927207  0.2523984  0.7619338

 Al 
  0.2394869  0.0099426  0.7245879

 Al 
  0.2571061  0.2613497  0.4831456

 Al 
  0.0020148  0.5031001  0.5052361

 Al 
  0.9984011  0.7430041  0.7637023

 Al 
  0.2655116  0.5154299  0.7503861

 Al 
  0.2497265  0.7612890  0.4924175

 Al 
  0.5187862  0.5038018  0.9936055

 Al 
  0.4953517  0.7560826  0.2506287

 Al 
  0.7522066  0.5104351  0.2608584

 Al 
  0.7500569  0.7503886  0.0084872

 Al 
  0.5177961  0.0190882  0.4771447

 Al 
  0.4913296  0.2394028  0.7390835

 Al 
  0.7588535  0.9905178  0.7619474

 Al 
  0.7615019  0.2494109  0.4988515

 Al 
  0.4888112  0.4972266  0.5062361

 Al 
  0.5166304  0.7576580  0.7370068

 Al 
  0.7521682  0.4939706  0.7381553

 Al 
  0.7436699  0.7473776  0.5222910

