32 
charge = 0 
 Al 
  0.9958901  0.9964630  0.0004987

 Al 
  0.9980063  0.2552374  0.2458381

 Al 
  0.2484778  0.0148470  0.2575392

 Al 
  0.2531013  0.2645426  0.0006274

 Al 
  0.4953901  0.0001559  0.9827546

 Al 
  0.5233800  0.2614227  0.2502624

 Al 
  0.7413754  0.9747686  0.2618930

 Al 
  0.7253614  0.2264801  0.9852978

 Al 
  0.9688963  0.4885055  0.0150488

 Al 
  0.9961128  0.7429224  0.2539107

 Al 
  0.2501448  0.4927677  0.2458208

 Al 
  0.2518229  0.7357099  0.0120291

 Al 
  0.0021855  0.9906205  0.5037684

 Al 
  0.9934978  0.2535419  0.7619326

 Al 
  0.2401824  0.0118138  0.7259393

 Al 
  0.2568462  0.2572534  0.4829142

 Al 
  0.0028650  0.5012165  0.5066296

 Al 
  0.9988577  0.7401948  0.7644782

 Al 
  0.2635402  0.5157913  0.7504047

 Al 
  0.2489864  0.7586023  0.4900537

 Al 
  0.5197354  0.5049379  0.9948084

 Al 
  0.4956289  0.7553475  0.2505408

 Al 
  0.7519195  0.5103188  0.2597013

 Al 
  0.7505990  0.7533946  0.0088944

 Al 
  0.5162975  0.0196636  0.4769950

 Al 
  0.4901342  0.2383867  0.7389288

 Al 
  0.7594364  0.9904497  0.7650859

 Al 
  0.7631899  0.2506015  0.5000235

 Al 
  0.4874400  0.4977068  0.5080862

 Al 
  0.5169831  0.7559267  0.7395092

 Al 
  0.7514479  0.4931810  0.7382716

 Al 
  0.7422677  0.7472303  0.5215138

