32 
charge = 0 
 Al 
  0.9955213  0.0016571  0.0017004

 Al 
  0.0063388  0.2545864  0.2523897

 Al 
  0.2441476  0.0165536  0.2501931

 Al 
  0.2504579  0.2667059  0.9959049

 Al 
  0.4906180  0.0018724  0.9808277

 Al 
  0.5202119  0.2582137  0.2470014

 Al 
  0.7474593  0.9763539  0.2539305

 Al 
  0.7259888  0.2231003  0.9838832

 Al 
  0.9766274  0.4915177  0.0158074

 Al 
  0.9918989  0.7511287  0.2540444

 Al 
  0.2474110  0.4938976  0.2408990

 Al 
  0.2535011  0.7331865  0.0077731

 Al 
  0.0079303  0.9963405  0.5048859

 Al 
  0.9962687  0.2566247  0.7614697

 Al 
  0.2429348  0.0160252  0.7311445

 Al 
  0.2554304  0.2461215  0.4832904

 Al 
  0.0055579  0.4962700  0.5101035

 Al 
  0.0004208  0.7325825  0.7661712

 Al 
  0.2574439  0.5161564  0.7506411

 Al 
  0.2473689  0.7507438  0.4841134

 Al 
  0.5216932  0.5078362  0.9981338

 Al 
  0.4962997  0.7527028  0.2504381

 Al 
  0.7504344  0.5095812  0.2575825

 Al 
  0.7516571  0.7611195  0.0096777

 Al 
  0.5109920  0.0200052  0.4785382

 Al 
  0.4875786  0.2367210  0.7384028

 Al 
  0.7608472  0.9905401  0.7714012

 Al 
  0.7673741  0.2536619  0.5031904

 Al 
  0.4849698  0.4994369  0.5120539

 Al 
  0.5158198  0.7511447  0.7476412

 Al 
  0.7489617  0.4907319  0.7396354

 Al 
  0.7398309  0.7468776  0.5171303

