32 
charge = 0 
 Al 
  0.9953789  0.9992773  0.0010012

 Al 
  0.0028402  0.2550381  0.2494010

 Al 
  0.2459891  0.0160289  0.2537956

 Al 
  0.2516175  0.2659200  0.9981003

 Al 
  0.4930697  0.0013341  0.9814044

 Al 
  0.5217947  0.2596418  0.2485483

 Al 
  0.7444928  0.9752339  0.2576085

 Al 
  0.7253341  0.2241090  0.9842223

 Al 
  0.9730013  0.4901144  0.0157109

 Al 
  0.9936055  0.7474358  0.2539156

 Al 
  0.2485743  0.4932318  0.2429385

 Al 
  0.2528402  0.7340590  0.0097978

 Al 
  0.0057101  0.9937305  0.5045023

 Al 
  0.9948963  0.2552832  0.7617568

 Al 
  0.2415524  0.0144089  0.7284961

 Al 
  0.2561952  0.2509752  0.4829105

 Al 
  0.0042844  0.4983912  0.5086679

 Al 
  0.9996733  0.7359042  0.7655190

 Al 
  0.2602829  0.5161465  0.7504913

 Al 
  0.2480063  0.7542981  0.4866108

 Al 
  0.5209680  0.5066247  0.9966611

 Al 
  0.4960212  0.7539924  0.2504591

 Al 
  0.7512252  0.5100106  0.2582979

 Al 
  0.7512809  0.7578709  0.0094080

 Al 
  0.5135451  0.0201463  0.4774714

 Al 
  0.4885253  0.2371888  0.7386503

 Al 
  0.7602619  0.9904646  0.7691797

 Al 
  0.7656576  0.2523848  0.5018205

 Al 
  0.4857915  0.4986065  0.5105576

 Al 
  0.5167888  0.7532647  0.7437825

 Al 
  0.7501819  0.4918667  0.7387840

 Al 
  0.7406119  0.7470187  0.5195300

