32 
charge = 0 
 Al 
  0.9954408  0.0012153  0.0015507

 Al 
  0.0057448  0.2546891  0.2518440

 Al 
  0.2444619  0.0165017  0.2508997

 Al 
  0.2506646  0.2665920  0.9963145

 Al 
  0.4911131  0.0018093  0.9808858

 Al 
  0.5205237  0.2584711  0.2472959

 Al 
  0.7468950  0.9760779  0.2546050

 Al 
  0.7258131  0.2231969  0.9838944

 Al 
  0.9759455  0.4912541  0.0158235

 Al 
  0.9921761  0.7504616  0.2540109

 Al 
  0.2476115  0.4937540  0.2412405

 Al 
  0.2533959  0.7333016  0.0081592

 Al 
  0.0075825  0.9958616  0.5048302

 Al 
  0.9959990  0.2563895  0.7615316

 Al 
  0.2426662  0.0157814  0.7306111

 Al 
  0.2555876  0.2469742  0.4831890

 Al 
  0.0053153  0.4966375  0.5098658

 Al 
  0.0002809  0.7331667  0.7660697

 Al 
  0.2579749  0.5161811  0.7506064

 Al 
  0.2474729  0.7513898  0.4845404

 Al 
  0.5215856  0.5076333  0.9978689

 Al 
  0.4962527  0.7529503  0.2504393

 Al 
  0.7505940  0.5096765  0.2576791

 Al 
  0.7516039  0.7605713  0.0096431

 Al 
  0.5114734  0.0200807  0.4782932

 Al 
  0.4877147  0.2367593  0.7384474

 Al 
  0.7607495  0.9905252  0.7711029

 Al 
  0.7670932  0.2534503  0.5029516

 Al 
  0.4850762  0.4992822  0.5118274

 Al 
  0.5160611  0.7515259  0.7469110

 Al 
  0.7492005  0.4909423  0.7394399

 Al 
  0.7399275  0.7468999  0.5176266

