32 
charge = 0 
 Al 
  0.9980508  0.0060368  0.0035394

 Al 
  0.0102557  0.2532090  0.2572125

 Al 
  0.2420363  0.0155042  0.2421006

 Al 
  0.2487711  0.2669063  0.9919150

 Al 
  0.4847594  0.0015482  0.9818276

 Al 
  0.5165994  0.2559836  0.2438914

 Al 
  0.7528724  0.9815182  0.2480100

 Al 
  0.7292213  0.2250074  0.9853794

 Al 
  0.9834699  0.4941810  0.0148569

 Al 
  0.9905574  0.7568177  0.2546359

 Al 
  0.2459767  0.4957910  0.2387134

 Al 
  0.2538983  0.7335912  0.0037300

 Al 
  0.0094686  0.0006967  0.5051445

 Al 
  0.9993441  0.2584303  0.7606876

 Al 
  0.2456128  0.0163928  0.7376491

 Al 
  0.2535370  0.2395277  0.4851752

 Al 
  0.0081011  0.4935659  0.5114611

 Al 
  0.0016658  0.7281521  0.7665017

 Al 
  0.2522944  0.5149399  0.7511546

 Al 
  0.2465930  0.7450708  0.4811098

 Al 
  0.5219333  0.5089674  0.0005062

 Al 
  0.4967118  0.7501968  0.2504307

 Al 
  0.7486808  0.5081060  0.2575046

 Al 
  0.7516831  0.7644894  0.0095032

 Al 
  0.5064180  0.0176105  0.4820677

 Al 
  0.4876751  0.2380018  0.7381380

 Al 
  0.7614784  0.9906242  0.7706463

 Al 
  0.7688048  0.2548067  0.5049465

 Al 
  0.4852705  0.5008168  0.5126863

 Al 
  0.5118856  0.7478652  0.7549639

 Al 
  0.7462353  0.4888100  0.7427256

 Al 
  0.7401366  0.7468343  0.5111851

