32 
charge = 0 
 Al 
  0.0020568  0.0095664  0.0049713

 Al 
  0.0108373  0.2519157  0.2600267

 Al 
  0.2417578  0.0126182  0.2346035

 Al 
  0.2479580  0.2660400  0.9890575

 Al 
  0.4795579  0.0005037  0.9845738

 Al 
  0.5129078  0.2545097  0.2412381

 Al 
  0.7564291  0.9890290  0.2445300

 Al 
  0.7334872  0.2298166  0.9884474

 Al 
  0.9889535  0.4963876  0.0134362

 Al 
  0.9913829  0.7599537  0.2553537

 Al 
  0.2455658  0.4977167  0.2383941

 Al 
  0.2533389  0.7359029  0.0003416

 Al 
  0.0086171  0.0034293  0.5052200

 Al 
  0.0021892  0.2591047  0.7599154

 Al 
  0.2473207  0.0138545  0.7442255

 Al 
  0.2518180  0.2366517  0.4876974

 Al 
  0.0102173  0.4926427  0.5111653

 Al 
  0.0021509  0.7267190  0.7658284

 Al 
  0.2485731  0.5124722  0.7517103

 Al 
  0.2460732  0.7417479  0.4802139

 Al 
  0.5209655  0.5085961  0.0022140

 Al 
  0.4970657  0.7483083  0.2503044

 Al 
  0.7473541  0.5062126  0.2582162

 Al 
  0.7511509  0.7645117  0.0086320

 Al 
  0.5032672  0.0134795  0.4859240

 Al 
  0.4897245  0.2411044  0.7383768

 Al 
  0.7614561  0.9906589  0.7656428

 Al 
  0.7680498  0.2544292  0.5055777

 Al 
  0.4870551  0.5015074  0.5112507

 Al 
  0.5073103  0.7458802  0.7605391

 Al 
  0.7437342  0.4876788  0.7466091

 Al 
  0.7416762  0.7470521  0.5057621

