32 
charge = 0 
 Al 
  0.0033563  0.0105601  0.0052869

 Al 
  0.0107062  0.2515581  0.2606653

 Al 
  0.2418606  0.0115687  0.2324613

 Al 
  0.2478132  0.2656923  0.9883310

 Al 
  0.4781595  0.0001832  0.9855700

 Al 
  0.5117333  0.2541099  0.2404893

 Al 
  0.7572954  0.9915747  0.2437058

 Al 
  0.7348795  0.2314947  0.9894980

 Al 
  0.9904930  0.4970261  0.0129919

 Al 
  0.9918420  0.7606492  0.2555703

 Al 
  0.2455423  0.4982847  0.2384573

 Al 
  0.2530580  0.7367828  0.9993862

 Al 
  0.0081840  0.0040741  0.5052485

 Al 
  0.0030135  0.2591889  0.7596740

 Al 
  0.2477031  0.0127828  0.7461982

 Al 
  0.2513390  0.2361071  0.4885179

 Al 
  0.0107990  0.4925301  0.5109029

 Al 
  0.0021793  0.7266187  0.7655054

 Al 
  0.2476115  0.5115576  0.7518749

 Al 
  0.2459173  0.7409992  0.4801433

 Al 
  0.5205200  0.5083201  0.0026954

 Al 
  0.4971796  0.7478108  0.2502388

 Al 
  0.7470299  0.5055839  0.2584662

 Al 
  0.7509542  0.7642221  0.0082941

 Al 
  0.5024405  0.0120378  0.4871108

 Al 
  0.4905425  0.2422034  0.7385340

 Al 
  0.7613658  0.9906935  0.7637877

 Al 
  0.7675907  0.2541706  0.5056680

 Al 
  0.4877197  0.5016299  0.5106257

 Al 
  0.5059056  0.7453975  0.7620229

 Al 
  0.7430239  0.4874437  0.7478590

 Al 
  0.7422405  0.7471437  0.5042213

