32 
charge = 0 
 Al 
  0.0054403  0.0120873  0.0056668

 Al 
  0.0103077  0.2510235  0.2615279

 Al 
  0.2421576  0.0097916  0.2291929

 Al 
  0.2476647  0.2650908  0.9872840

 Al 
  0.4761175  0.9997042  0.9872642

 Al 
  0.5097941  0.2534862  0.2393458

 Al 
  0.7585330  0.9958121  0.2425301

 Al 
  0.7371751  0.2342842  0.9912381

 Al 
  0.9928679  0.4980298  0.0122878

 Al 
  0.9926984  0.7615910  0.2559044

 Al 
  0.2455720  0.4991721  0.2386540

 Al 
  0.2525209  0.7382914  0.9979147

 Al 
  0.0074056  0.0049663  0.5053054

 Al 
  0.0042894  0.2592396  0.7592706

 Al 
  0.2482068  0.0108732  0.7493008

 Al 
  0.2506188  0.2354351  0.4898619

 Al 
  0.0116690  0.4924571  0.5103658

 Al 
  0.0021323  0.7267004  0.7649003

 Al 
  0.2462007  0.5099710  0.7521298

 Al 
  0.2456636  0.7399943  0.4801718

 Al 
  0.5196810  0.5077657  0.0034491

 Al 
  0.4973714  0.7470732  0.2501064

 Al 
  0.7465868  0.5045357  0.2588647

 Al 
  0.7506336  0.7635921  0.0077100

 Al 
  0.5011942  0.0096072  0.4890179

 Al 
  0.4919682  0.2440374  0.7388557

 Al 
  0.7611554  0.9907863  0.7606468

 Al 
  0.7666972  0.2536731  0.5057522

 Al 
  0.4888545  0.5017611  0.5095070

 Al 
  0.5036681  0.7447008  0.7642283

 Al 
  0.7419459  0.4871615  0.7498936

 Al 
  0.7432070  0.7473058  0.5018502

