32 
charge = 0 
 Al 
  0.0075343  0.0135736  0.0058871

 Al 
  0.0097050  0.2505284  0.2622284

 Al 
  0.2426130  0.0078771  0.2260841

 Al 
  0.2476189  0.2644275  0.9863596

 Al 
  0.4743033  0.9992748  0.9891082

 Al 
  0.5077187  0.2528526  0.2382456

 Al 
  0.7596344  0.0003267  0.2414769

 Al 
  0.7396119  0.2372432  0.9930758

 Al 
  0.9952020  0.4990483  0.0115786

 Al 
  0.9937020  0.7623670  0.2562188

 Al 
  0.2456760  0.5000495  0.2389560

 Al 
  0.2518563  0.7399312  0.9964754

 Al 
  0.0065294  0.0057126  0.5053797

 Al 
  0.0055344  0.2591963  0.7588189

 Al 
  0.2485978  0.0087025  0.7523885

 Al 
  0.2499468  0.2349574  0.4912789

 Al 
  0.0124771  0.4924929  0.5096802

 Al 
  0.0019677  0.7270667  0.7641701

 Al 
  0.2449149  0.5082063  0.7523786

 Al 
  0.2454049  0.7391911  0.4803723

 Al 
  0.5186612  0.5070628  0.0042077

 Al 
  0.4975744  0.7463913  0.2499394

 Al 
  0.7462316  0.5034045  0.2592607

 Al 
  0.7503143  0.7627766  0.0070628

 Al 
  0.4999851  0.0069799  0.4909856

 Al 
  0.4935436  0.2459792  0.7392740

 Al 
  0.7608559  0.9909311  0.7572694

 Al 
  0.7656044  0.2530791  0.5057782

 Al 
  0.4900846  0.5018155  0.5082360

 Al 
  0.5013923  0.7440696  0.7662789

 Al 
  0.7409311  0.4869945  0.7520073

 Al 
  0.7442713  0.7474865  0.4995372

