32 
charge = 0 
 Al 
  0.0088461  0.0144906  0.0059254

 Al 
  0.0092236  0.2502413  0.2625798

 Al 
  0.2429917  0.0065937  0.2242278

 Al 
  0.2476511  0.2639770  0.9858485

 Al 
  0.4733033  0.9990409  0.9903569

 Al 
  0.5063178  0.2524380  0.2375786

 Al 
  0.7602606  0.0033328  0.2408693

 Al 
  0.7412405  0.2392072  0.9942886

 Al 
  0.9966586  0.4997055  0.0111294

 Al 
  0.9944099  0.7627716  0.2563982

 Al 
  0.2457824  0.5005977  0.2392035

 Al 
  0.2513551  0.7410314  0.9955819

 Al 
  0.0059292  0.0061037  0.5054403

 Al 
  0.0062992  0.2591146  0.7584983

 Al 
  0.2487822  0.0071890  0.7543240

 Al 
  0.2495545  0.2347520  0.4922170

 Al 
  0.0129474  0.4925709  0.5091654

 Al 
  0.0017994  0.7274566  0.7636330

 Al 
  0.2441723  0.5069885  0.7525283

 Al 
  0.2452391  0.7387939  0.4806012

 Al 
  0.5179026  0.5065368  0.0046953

 Al 
  0.4977080  0.7459915  0.2498144

 Al 
  0.7460621  0.5026385  0.2595045

 Al 
  0.7501225  0.7621702  0.0066210

 Al 
  0.4992302  0.0052089  0.4922714

 Al 
  0.4946154  0.2472563  0.7395946

 Al 
  0.7606158  0.9910586  0.7550134

 Al 
  0.7648025  0.2526583  0.5057658

 Al 
  0.4909138  0.5018081  0.5073511

 Al 
  0.4999270  0.7437008  0.7674855

 Al 
  0.7403334  0.4869623  0.7533860

 Al 
  0.7450015  0.7476115  0.4981016

