32 
charge = 0 
 Al 
  0.0082026  0.0140414  0.0059180

 Al 
  0.0094698  0.2503799  0.2624165

 Al 
  0.2427961  0.0072323  0.2251287

 Al 
  0.2476288  0.2642023  0.9860910

 Al 
  0.4737785  0.9991510  0.9897332

 Al 
  0.5070182  0.2526447  0.2379041

 Al 
  0.7599587  0.0018378  0.2411626

 Al 
  0.7404287  0.2382308  0.9936860

 Al 
  0.9959433  0.4993800  0.0113509

 Al 
  0.9940535  0.7625811  0.2563128

 Al 
  0.2457267  0.5003292  0.2390760

 Al 
  0.2516113  0.7404844  0.9960200

 Al 
  0.0062287  0.0059193  0.5054094

 Al 
  0.0059254  0.2591604  0.7586605

 Al 
  0.2486981  0.0079489  0.7533748

 Al 
  0.2497438  0.2348436  0.4917504

 Al 
  0.0127209  0.4925264  0.5094278

 Al 
  0.0018885  0.7272487  0.7639053

 Al 
  0.2445300  0.5075974  0.7524553

 Al 
  0.2453208  0.7389783  0.4804775

 Al 
  0.5182887  0.5068041  0.0044552

 Al 
  0.4976412  0.7461846  0.2498775

 Al 
  0.7461388  0.5030221  0.2593857

 Al 
  0.7502153  0.7624771  0.0068412

 Al 
  0.4996015  0.0060925  0.4916341

 Al 
  0.4940807  0.2466239  0.7394300

 Al 
  0.7607396  0.9909918  0.7561358

 Al 
  0.7652084  0.2528699  0.5057745

 Al 
  0.4905005  0.5018167  0.5077954

 Al 
  0.5006510  0.7438790  0.7669014

 Al 
  0.7406218  0.4869697  0.7527028

 Al 
  0.7446364  0.7475496  0.4988058

