32 
charge = 0 
 Al 
  0.0140983  0.0184186  0.0036211

 Al 
  0.0055183  0.2496708  0.2622259

 Al 
  0.2465880  0.9988590  0.2187577

 Al 
  0.2492859  0.2610898  0.9851975

 Al 
  0.4729221  0.9989097  0.9981486

 Al 
  0.4969878  0.2497636  0.2351752

 Al 
  0.7619338  0.0210534  0.2387308

 Al 
  0.7516571  0.2512215  0.0012735

 Al 
  0.0035419  0.5034318  0.0089154

 Al 
  0.9992426  0.7632023  0.2563685

 Al 
  0.2470398  0.5030803  0.2416130

 Al 
  0.2466660  0.7473628  0.9917578

 Al 
  0.0024231  0.0063116  0.5058945

 Al 
  0.0093176  0.2574873  0.7558636

 Al 
  0.2483342  0.9969234  0.7628360

 Al 
  0.2485867  0.2354624  0.4978603

 Al 
  0.0140736  0.4939520  0.5047461

 Al 
  0.9996510  0.7327744  0.7591642

 Al 
  0.2421625  0.4989778  0.7529046

 Al 
  0.2445968  0.7391070  0.4842879

 Al 
  0.5112730  0.5020989  0.0074006

 Al 
  0.4983219  0.7448084  0.2487414

 Al 
  0.7466858  0.4975533  0.2602643

 Al 
  0.7496646  0.7576407  0.0037350

 Al 
  0.4950807  0.9940213  0.4997661

 Al 
  0.5010284  0.2540357  0.7425920

 Al 
  0.7581011  0.9925573  0.7419026

 Al 
  0.7583808  0.2499319  0.5052584

 Al 
  0.4959309  0.5007896  0.5012722

 Al 
  0.4920400  0.7423568  0.7712378

 Al 
  0.7388669  0.4887963  0.7611343

 Al 
  0.7499988  0.7483503  0.4913519

