32 
charge = 0 
 Al 
  0.0132840  0.0176538  0.0048438

 Al 
  0.0066408  0.2495483  0.2628645

 Al 
  0.2453233  0.0010544  0.2189248

 Al 
  0.2485038  0.2619524  0.9848312

 Al 
  0.4716425  0.9986684  0.9959099

 Al 
  0.4998874  0.2505940  0.2354710

 Al 
  0.7619128  0.0161440  0.2390513

 Al 
  0.7484976  0.2476969  0.9993664

 Al 
  0.0019776  0.5024046  0.0094438

 Al 
  0.9977724  0.7634845  0.2566754

 Al 
  0.2465608  0.5025556  0.2407146

 Al 
  0.2484110  0.7456797  0.9924769

 Al 
  0.0033427  0.0067101  0.5057769

 Al 
  0.0088374  0.2582112  0.7567818

 Al 
  0.2487835  0.0000668  0.7611653

 Al 
  0.2485323  0.2348745  0.4962465

 Al 
  0.0141552  0.4933729  0.5063103

 Al 
  0.0004975  0.7306198  0.7607359

 Al 
  0.2421885  0.5013836  0.7529454

 Al 
  0.2446748  0.7384486  0.4826927

 Al 
  0.5136602  0.5036409  0.0066692

 Al 
  0.4981993  0.7448728  0.2491213

 Al 
  0.7461277  0.4991176  0.2602285

 Al 
  0.7496225  0.7590726  0.0046062

 Al 
  0.4962465  0.9973405  0.4976499

 Al 
  0.4992575  0.2523588  0.7414769

 Al 
  0.7590837  0.9919608  0.7454631

 Al 
  0.7605725  0.2507116  0.5054886

 Al 
  0.4945114  0.5012945  0.5031620

 Al 
  0.4940944  0.7425709  0.7709507

 Al 
  0.7387679  0.4877766  0.7590429

 Al 
  0.7484295  0.7481585  0.4929137

