32 
charge = 0 
 Al 
  0.0119759  0.0166811  0.0055121

 Al 
  0.0076494  0.2496720  0.2630278

 Al 
  0.2443419  0.0030580  0.2202143

 Al 
  0.2480397  0.2627011  0.9849364

 Al 
  0.4716215  0.9986622  0.9938741

 Al 
  0.5023180  0.2512846  0.2360576

 Al 
  0.7615366  0.0115539  0.2395537

 Al 
  0.7457985  0.2445993  0.9975645

 Al 
  0.0002549  0.5014517  0.0099995

 Al 
  0.9964977  0.7634350  0.2567014

 Al 
  0.2462155  0.5019355  0.2400710

 Al 
  0.2496621  0.7440362  0.9934310

 Al 
  0.0042585  0.0067212  0.5056458

 Al 
  0.0080937  0.2586605  0.7574798

 Al 
  0.2489505  0.0027635  0.7590354

 Al 
  0.2487488  0.2346282  0.4947886

 Al 
  0.0139040  0.4929880  0.5074873

 Al 
  0.0010866  0.7291582  0.7619190

 Al 
  0.2426402  0.5034813  0.7528538

 Al 
  0.2448369  0.7382877  0.4816853

 Al 
  0.5154225  0.5048253  0.0059774

 Al 
  0.4980471  0.7451463  0.2494047

 Al 
  0.7459235  0.5004468  0.2600465

 Al 
  0.7497228  0.7602804  0.0053599

 Al 
  0.4972922  0.0002438  0.4957255

 Al 
  0.4975905  0.2506200  0.7406774

 Al 
  0.7597557  0.9915549  0.7488577

 Al 
  0.7622729  0.2514319  0.5056334

 Al 
  0.4932107  0.5015841  0.5047572

 Al 
  0.4961079  0.7428877  0.7700757

 Al 
  0.7390983  0.4872593  0.7570529

 Al 
  0.7471239  0.7479630  0.4945931

