32 
charge = 0 
 Al 
  0.0136169  0.0188010  0.0007227

 Al 
  0.0041322  0.2505198  0.2602297

 Al 
  0.2487414  0.9956586  0.2217799

 Al 
  0.2510358  0.2596307  0.9869338

 Al 
  0.4781422  0.9997599  0.0013180

 Al 
  0.4920895  0.2483182  0.2357284

 Al 
  0.7609636  0.0277635  0.2387431

 Al 
  0.7568932  0.2568858  0.0038785

 Al 
  0.0051631  0.5049515  0.0082471

 Al 
  0.0014789  0.7620291  0.2551223

 Al 
  0.2479456  0.5034813  0.2434917

 Al 
  0.2431773  0.7494196  0.9915734

 Al 
  0.0013786  0.0048611  0.5058314

 Al 
  0.0091456  0.2558425  0.7540963

 Al 
  0.2471623  0.9919670  0.7635959

 Al 
  0.2493837  0.2370464  0.5002945

 Al 
  0.0130328  0.4951624  0.5017759

 Al 
  0.9979506  0.7372296  0.7560962

 Al 
  0.2432256  0.4952552  0.7524108

 Al 
  0.2447812  0.7411638  0.4879424

 Al 
  0.5065727  0.4992847  0.0083981

 Al 
  0.4984530  0.7452849  0.2479791

 Al 
  0.7483243  0.4950299  0.2598646

 Al 
  0.7500644  0.7553834  0.0023885

 Al 
  0.4931711  0.9887580  0.5029664

 Al 
  0.5034677  0.2558574  0.7449000

 Al 
  0.7559428  0.9938283  0.7372259

 Al 
  0.7543030  0.2489159  0.5047621

 Al 
  0.4980249  0.4995730  0.4981585

 Al 
  0.4893607  0.7422788  0.7700337

 Al 
  0.7402059  0.4915375  0.7639486

 Al 
  0.7526719  0.7485236  0.4895636

