32 
charge = 0 
 Al 
  0.0131367  0.0187379  0.9998008

 Al 
  0.0038909  0.2508712  0.2595243

 Al 
  0.2493132  0.9948666  0.2232216

 Al 
  0.2515729  0.2592013  0.9876145

 Al 
  0.4801557  0.0000545  0.0020643

 Al 
  0.4907331  0.2479073  0.2360997

 Al 
  0.7605057  0.0292993  0.2388397

 Al 
  0.7583325  0.2584278  0.0044775

 Al 
  0.0054552  0.5053401  0.0080776

 Al 
  0.0020395  0.7615885  0.2546322

 Al 
  0.2482068  0.5035110  0.2440968

 Al 
  0.2421242  0.7498342  0.9917170

 Al 
  0.0011918  0.0043401  0.5057312

 Al 
  0.0089166  0.2553116  0.7535605

 Al 
  0.2467960  0.9906824  0.7634350

 Al 
  0.2497277  0.2375872  0.5009207

 Al 
  0.0125773  0.4955373  0.5008997

 Al 
  0.9974370  0.7385971  0.7551594

 Al 
  0.2437033  0.4942961  0.7521843

 Al 
  0.2448926  0.7418828  0.4891429

 Al 
  0.5051445  0.4984815  0.0086246

 Al 
  0.4984902  0.7455175  0.2477402

 Al 
  0.7488949  0.4943641  0.2596617

 Al 
  0.7502252  0.7548005  0.0020457

 Al 
  0.4926340  0.9873533  0.5037956

 Al 
  0.5040468  0.2561717  0.7456314

 Al 
  0.7552374  0.9942330  0.7361975

 Al 
  0.7530989  0.2487055  0.5046062

 Al 
  0.4985545  0.4991696  0.4973120

 Al 
  0.4887555  0.7422925  0.7694050

 Al 
  0.7407901  0.4924991  0.7645871

 Al 
  0.7534194  0.7485360  0.4891911

