32 
charge = 0 
 Al 
  0.0086580  0.0173977  0.9944186

 Al 
  0.0037634  0.2534157  0.2549453

 Al 
  0.2521781  0.9910450  0.2342471

 Al 
  0.2544713  0.2564601  0.9923977

 Al 
  0.4941377  0.0018155  0.0053042

 Al 
  0.4833870  0.2456698  0.2395847

 Al 
  0.7569118  0.0356245  0.2399077

 Al 
  0.7661106  0.2668655  0.0069341

 Al 
  0.0064663  0.5072868  0.0070294

 Al 
  0.0046805  0.7585738  0.2510990

 Al 
  0.2496386  0.5032486  0.2480459

 Al 
  0.2361467  0.7512697  0.9936167

 Al 
  0.0008193  0.0010074  0.5044416

 Al 
  0.0066593  0.2520779  0.7502933

 Al 
  0.2448480  0.9843473  0.7605725

 Al 
  0.2521843  0.2410945  0.5041112

 Al 
  0.0091642  0.4978021  0.4958975

 Al 
  0.9944928  0.7467254  0.7494641

 Al 
  0.2471462  0.4894919  0.7504109

 Al 
  0.2457576  0.7464309  0.4968541

 Al 
  0.4966809  0.4941166  0.0095255

 Al 
  0.4987884  0.7472749  0.2462415

 Al 
  0.7525110  0.4910673  0.2579773

 Al 
  0.7512858  0.7519219  0.0004319

 Al 
  0.4895822  0.9799403  0.5080392

 Al 
  0.5067757  0.2568487  0.7502958

 Al 
  0.7506559  0.9967675  0.7322014

 Al 
  0.7461029  0.2480756  0.5036657

 Al 
  0.5012363  0.4966202  0.4928122

 Al 
  0.4861542  0.7424014  0.7644696

 Al 
  0.7450918  0.4989431  0.7671427

 Al 
  0.7575095  0.7483738  0.4876244

