32 
charge = 0 
 Al 
  0.0097780  0.0177961  0.9955163

 Al 
  0.0036186  0.2528328  0.2559465

 Al 
  0.2516410  0.9917492  0.2316729

 Al 
  0.2539206  0.2570776  0.9913111

 Al 
  0.4909930  0.0014529  0.0047621

 Al 
  0.4848411  0.2461103  0.2386887

 Al 
  0.7577657  0.0346282  0.2396230

 Al 
  0.7645698  0.2651663  0.0065578

 Al 
  0.0063165  0.5069217  0.0072694

 Al 
  0.0042090  0.7592495  0.2519108

 Al 
  0.2493528  0.5033501  0.2471660

 Al 
  0.2373484  0.7510779  0.9930994

 Al 
  0.0008131  0.0017214  0.5048055

 Al 
  0.0072360  0.2527585  0.7509987

 Al 
  0.2452143  0.9855156  0.7613819

 Al 
  0.2516299  0.2403247  0.5034949

 Al 
  0.0099636  0.4973256  0.4969160

 Al 
  0.9950955  0.7450188  0.7506819

 Al 
  0.2463665  0.4904002  0.7508316

 Al 
  0.2455646  0.7454619  0.4951661

 Al 
  0.4984518  0.4949755  0.0093894

 Al 
  0.4987105  0.7468714  0.2465670

 Al 
  0.7517351  0.4916749  0.2583907

 Al 
  0.7510544  0.7524578  0.0007165

 Al 
  0.4902047  0.9813920  0.5072249

 Al 
  0.5062744  0.2568388  0.7492698

 Al 
  0.7516695  0.9962217  0.7327966

 Al 
  0.7475521  0.2481288  0.5038624

 Al 
  0.5007227  0.4971697  0.4936934

 Al 
  0.4865885  0.7423865  0.7656329

 Al 
  0.7441005  0.4975088  0.7667615

 Al 
  0.7566965  0.7484332  0.4878917

