32 
charge = 0 
 Al 
  0.0080763  0.0171774  0.9938889

 Al 
  0.0038674  0.2537102  0.2544478

 Al 
  0.2524306  0.9907158  0.2355539

 Al 
  0.2547263  0.2561433  0.9929459

 Al 
  0.4957180  0.0019900  0.0055455

 Al 
  0.4826877  0.2454594  0.2400587

 Al 
  0.7564725  0.0360527  0.2400599

 Al 
  0.7668519  0.2676897  0.0070912

 Al 
  0.0065306  0.5074576  0.0069031

 Al 
  0.0048970  0.7582335  0.2506881

 Al 
  0.2497772  0.5031917  0.2484902

 Al 
  0.2355713  0.7513465  0.9938926

 Al 
  0.0008378  0.0006559  0.5042424

 Al 
  0.0063561  0.2517450  0.7499394

 Al 
  0.2446772  0.9838053  0.7601393

 Al 
  0.2524640  0.2414794  0.5044057

 Al 
  0.0087558  0.4980360  0.4954037

 Al 
  0.9941995  0.7475657  0.7488602

 Al 
  0.2475397  0.4890612  0.7501943

 Al 
  0.2458529  0.7469036  0.4976969

 Al 
  0.4958109  0.4937082  0.0095812

 Al 
  0.4988317  0.7474791  0.2460782

 Al 
  0.7528947  0.4907863  0.2577632

 Al 
  0.7514022  0.7516707  0.0003032

 Al 
  0.4892815  0.9792461  0.5084266

 Al 
  0.5070108  0.2568313  0.7508094

 Al 
  0.7501473  0.9970373  0.7319502

 Al 
  0.7453950  0.2480657  0.5035691

 Al 
  0.5014814  0.4963492  0.4923915

 Al 
  0.4859599  0.7424038  0.7638768

 Al 
  0.7455943  0.4996621  0.7672986

 Al 
  0.7579006  0.7483417  0.4875019

