32 
charge = 0 
 Al 
  0.0039169  0.0153792  0.9907913

 Al 
  0.0051087  0.2556396  0.2512611

 Al 
  0.2538204  0.9889102  0.2443468

 Al 
  0.2560009  0.2538600  0.9965720

 Al 
  0.5060900  0.0030395  0.0066581

 Al 
  0.4786236  0.2442379  0.2436501

 Al 
  0.7534602  0.0376825  0.2412492

 Al 
  0.7711660  0.2726462  0.0075491

 Al 
  0.0068474  0.5083820  0.0059453

 Al 
  0.0059514  0.7560071  0.2479357

 Al 
  0.2506299  0.5027474  0.2515123

 Al 
  0.2323165  0.7515977  0.9959346

 Al 
  0.0011707  0.9985025  0.5026212

 Al 
  0.0041149  0.2497302  0.7475769

 Al 
  0.2438109  0.9810344  0.7569217

 Al 
  0.2543067  0.2439656  0.5061507

 Al 
  0.0058871  0.4994703  0.4924830

 Al 
  0.9923927  0.7528130  0.7449891

 Al 
  0.2501337  0.4866368  0.7487030

 Al 
  0.2463826  0.7497079  0.5031409

 Al 
  0.4904039  0.4914076  0.0097730

 Al 
  0.4991869  0.7488218  0.2450213

 Al 
  0.7553079  0.4893495  0.2562410

 Al 
  0.7521509  0.7503465  0.9997228

 Al 
  0.4875526  0.9752661  0.5106084

 Al 
  0.5083164  0.2563734  0.7541904

 Al 
  0.7467873  0.9987278  0.7310616

 Al 
  0.7410549  0.2482922  0.5029862

 Al 
  0.5028798  0.4946587  0.4899918

 Al 
  0.4850936  0.7423061  0.7598832

 Al 
  0.7489852  0.5043500  0.7676600

 Al 
  0.7601505  0.7481127  0.4868695

