32 
charge = 0 
 Al 
  0.0045035  0.0156564  0.9911589

 Al 
  0.0048847  0.2553871  0.2516719

 Al 
  0.2536644  0.9891132  0.2431637

 Al 
  0.2558797  0.2541916  0.9960918

 Al 
  0.5047201  0.0029107  0.0065603

 Al 
  0.4791038  0.2443827  0.2431192

 Al 
  0.7538711  0.0375922  0.2410685

 Al 
  0.7706549  0.2720385  0.0075516

 Al 
  0.0068140  0.5082805  0.0060913

 Al 
  0.0058524  0.7563004  0.2483045

 Al 
  0.2505223  0.5028117  0.2510965

 Al 
  0.2326853  0.7515866  0.9956413

 Al 
  0.0011064  0.9987674  0.5028736

 Al 
  0.0044391  0.2499752  0.7478986

 Al 
  0.2438976  0.9813116  0.7573808

 Al 
  0.2540617  0.2436414  0.5059378

 Al 
  0.0062881  0.4992934  0.4928320

 Al 
  0.9926217  0.7521472  0.7454916

 Al 
  0.2497896  0.4869177  0.7489085

 Al 
  0.2463257  0.7493787  0.5024318

 Al 
  0.4910858  0.4916675  0.0097668

 Al 
  0.4991300  0.7486436  0.2451611

 Al 
  0.7550010  0.4894943  0.2564539

 Al 
  0.7520531  0.7504864  0.9997698

 Al 
  0.4877494  0.9757289  0.5103584

 Al 
  0.5081667  0.2564687  0.7537412

 Al 
  0.7472353  0.9985137  0.7311012

 Al 
  0.7415957  0.2482303  0.5030580

 Al 
  0.5027152  0.4948715  0.4902690

 Al 
  0.4851641  0.7423358  0.7604190

 Al 
  0.7485261  0.5037337  0.7676885

 Al 
  0.7598881  0.7481424  0.4869363

