32 
charge = 0 
 Al 
  0.0074848  0.0169459  0.9933766

 Al 
  0.0039936  0.2540035  0.2539552

 Al 
  0.2526719  0.9904027  0.2368620

 Al 
  0.2549651  0.2558227  0.9934917

 Al 
  0.4972885  0.0021608  0.0057670

 Al 
  0.4820133  0.2452564  0.2405475

 Al 
  0.7560319  0.0364326  0.2402183

 Al 
  0.7675672  0.2684917  0.0072261

 Al 
  0.0065900  0.5076197  0.0067757

 Al 
  0.0050975  0.7578956  0.2502772

 Al 
  0.2499134  0.5031323  0.2489345

 Al 
  0.2350181  0.7514121  0.9941748

 Al 
  0.0008651  0.0003119  0.5040345

 Al 
  0.0060455  0.2514195  0.7495879

 Al 
  0.2445164  0.9832954  0.7596926

 Al 
  0.2527412  0.2418593  0.5046916

 Al 
  0.0083424  0.4982649  0.4949248

 Al 
  0.9939137  0.7483899  0.7482637

 Al 
  0.2479296  0.4886503  0.7499777

 Al 
  0.2459433  0.7473652  0.4985310

 Al 
  0.4949582  0.4933147  0.0096307

 Al 
  0.4988763  0.7476820  0.2459185

 Al 
  0.7532721  0.4905215  0.2575454

 Al 
  0.7515173  0.7514343  0.0001856

 Al 
  0.4889906  0.9785766  0.5087978

 Al 
  0.5072348  0.2568004  0.7513205

 Al 
  0.7496411  0.9973021  0.7317311

 Al 
  0.7447032  0.2480657  0.5034751

 Al 
  0.5017165  0.4960831  0.4919868

 Al 
  0.4857829  0.7424038  0.7632828

 Al 
  0.7460967  0.5003750  0.7674298

 Al 
  0.7582781  0.7483083  0.4873868

