32 
charge = 0 
 Al 
  0.9987897  0.0125848  0.9885080

 Al 
  0.0077125  0.2574501  0.2482365

 Al 
  0.2546557  0.9877543  0.2538847

 Al 
  0.2561804  0.2506015  0.0003292

 Al 
  0.5168581  0.0039354  0.0067757

 Al 
  0.4756930  0.2432763  0.2486894

 Al 
  0.7501275  0.0366950  0.2430771

 Al 
  0.7742847  0.2767289  0.0065727

 Al 
  0.0071605  0.5089241  0.0043723

 Al 
  0.0061309  0.7537572  0.2450151

 Al 
  0.2514145  0.5022548  0.2550913

 Al 
  0.2304255  0.7515321  0.9984865

 Al 
  0.0018365  0.9968108  0.4999653

 Al 
  0.0012153  0.2481226  0.7447948

 Al 
  0.2435115  0.9802139  0.7530531

 Al 
  0.2561977  0.2464470  0.5076853

 Al 
  0.0023984  0.5006559  0.4903297

 Al 
  0.9907059  0.7576630  0.7411415

 Al 
  0.2528080  0.4849314  0.7469927

 Al 
  0.2465187  0.7514430  0.5085157

 Al 
  0.4855428  0.4900562  0.0095787

 Al 
  0.4998651  0.7501869  0.2438691

 Al 
  0.7574526  0.4889424  0.2544181

 Al 
  0.7528340  0.7497339  0.9998639

 Al 
  0.4865786  0.9726103  0.5120044

 Al 
  0.5092149  0.2552077  0.7577818

 Al 
  0.7431786  0.0002388  0.7317336

 Al 
  0.7372197  0.2492476  0.5024739

 Al 
  0.5039528  0.4932058  0.4883830

 Al 
  0.4851864  0.7417232  0.7556755

 Al 
  0.7527140  0.5091468  0.7662096

 Al 
  0.7616343  0.7479209  0.4864908

