32 
charge = 0 
 Al 
  0.0021905  0.0145104  0.9898371

 Al 
  0.0058599  0.2563338  0.2501275

 Al 
  0.2542065  0.9884016  0.2477229

 Al 
  0.2562423  0.2528439  0.9979296

 Al 
  0.5099599  0.0033835  0.0068425

 Al 
  0.4773798  0.2438567  0.2452651

 Al 
  0.7522784  0.0376986  0.2418098

 Al 
  0.7724877  0.2742674  0.0074080

 Al 
  0.0069415  0.5086320  0.0054799

 Al 
  0.0061507  0.7551866  0.2468900

 Al 
  0.2509257  0.5025618  0.2527239

 Al 
  0.2314069  0.7515989  0.9968009

 Al 
  0.0013799  0.9978033  0.5018217

 Al 
  0.0031496  0.2490793  0.7466388

 Al 
  0.2436204  0.9804329  0.7555765

 Al 
  0.2549948  0.2448728  0.5067286

 Al 
  0.0047089  0.4999443  0.4915734

 Al 
  0.9917640  0.7546384  0.7435845

 Al 
  0.2511051  0.4859165  0.7481102

 Al 
  0.2465051  0.7505334  0.5051186

 Al 
  0.4885439  0.4907641  0.0097557

 Al 
  0.4993775  0.7493193  0.2446216

 Al 
  0.7561408  0.4890401  0.2556198

 Al 
  0.7524170  0.7500198  0.9996584

 Al 
  0.4870675  0.9740929  0.5112358

 Al 
  0.5086964  0.2560430  0.7554638

 Al 
  0.7455114  0.9993107  0.7310900

 Al 
  0.7395847  0.2485335  0.5027932

 Al 
  0.5033092  0.4940832  0.4892852

 Al 
  0.4849797  0.7421811  0.7583647

 Al 
  0.7502995  0.5060814  0.7674175

 Al 
  0.7608138  0.7480310  0.4867036

