32 
charge = 0 
 Al 
  0.9993627  0.0129288  0.9886837

 Al 
  0.0073697  0.2572892  0.2485236

 Al 
  0.2546074  0.9878335  0.2528922

 Al 
  0.2562410  0.2510061  0.9999505

 Al 
  0.5157616  0.0038525  0.0068252

 Al 
  0.4759071  0.2433605  0.2480904

 Al 
  0.7504703  0.0369549  0.2428457

 Al 
  0.7740557  0.2763811  0.0067633

 Al 
  0.0071160  0.5088919  0.0045790

 Al 
  0.0061717  0.7539800  0.2453134

 Al 
  0.2513403  0.5022982  0.2546928

 Al 
  0.2305146  0.7515457  0.9982068

 Al 
  0.0017586  0.9969407  0.5003057

 Al 
  0.0015420  0.2482538  0.7451092

 Al 
  0.2435077  0.9801619  0.7534602

 Al 
  0.2560108  0.2462007  0.5075380

 Al 
  0.0027870  0.5005569  0.4904881

 Al 
  0.9908680  0.7572039  0.7415239

 Al 
  0.2525420  0.4850601  0.7471759

 Al 
  0.2465398  0.7513613  0.5079897

 Al 
  0.4859871  0.4901243  0.0096208

 Al 
  0.4997711  0.7500520  0.2439941

 Al 
  0.7572645  0.4889114  0.2546186

 Al 
  0.7527746  0.7497512  0.9997983

 Al 
  0.4866170  0.9727848  0.5119177

 Al 
  0.5091468  0.2553636  0.7574080

 Al 
  0.7435548  0.0001040  0.7315752

 Al 
  0.7375712  0.2491065  0.5025234

 Al 
  0.5038612  0.4933283  0.4884894

 Al 
  0.4851121  0.7418222  0.7560987

 Al 
  0.7523241  0.5086605  0.7664819

 Al 
  0.7615415  0.7479333  0.4865180

