32 
charge = 0 
 Al 
  0.9970150  0.0114722  0.9880810

 Al 
  0.0088399  0.2578783  0.2474296

 Al 
  0.2547386  0.9875749  0.2568524

 Al 
  0.2558759  0.2492773  0.0014356

 Al 
  0.5200968  0.0041731  0.0065356

 Al 
  0.4751992  0.2430399  0.2505903

 Al 
  0.7491238  0.0356888  0.2438382

 Al 
  0.7748144  0.2776385  0.0058673

 Al 
  0.0073264  0.5089859  0.0036805

 Al 
  0.0059094  0.7531112  0.2441364

 Al 
  0.2516249  0.5021435  0.2563264

 Al 
  0.2303364  0.7514950  0.9993342

 Al 
  0.0020680  0.9965051  0.4988404

 Al 
  0.0002067  0.2477811  0.7438134

 Al 
  0.2435758  0.9805901  0.7518477

 Al 
  0.2567336  0.2471573  0.5081196

 Al 
  0.0011992  0.5009121  0.4899658

 Al 
  0.9902406  0.7589674  0.7400252

 Al 
  0.2535778  0.4846171  0.7464383

 Al 
  0.2463950  0.7515135  0.5100304

 Al 
  0.4843102  0.4899671  0.0094265

 Al 
  0.5001906  0.7505804  0.2434855

 Al 
  0.7579575  0.4891540  0.2538030

 Al 
  0.7529862  0.7497463  0.0001448

 Al 
  0.4865749  0.9722563  0.5121677

 Al 
  0.5093795  0.2546953  0.7589018

 Al 
  0.7420536  0.0006089  0.7323288

 Al 
  0.7362445  0.2497290  0.5023303

 Al 
  0.5042052  0.4928952  0.4881590

 Al 
  0.4855156  0.7413643  0.7544416

 Al 
  0.7538748  0.5105799  0.7651973

 Al 
  0.7618101  0.7478986  0.4864215

