32 
charge = 0 
 Al 
  0.9957613  0.0106480  0.9878706

 Al 
  0.0096839  0.2581147  0.2469259

 Al 
  0.2547448  0.9874994  0.2588585

 Al 
  0.2555653  0.2482773  0.0021645

 Al 
  0.5222526  0.0043278  0.0062955

 Al 
  0.4749913  0.2428914  0.2519690

 Al 
  0.7484691  0.0348126  0.2444211

 Al 
  0.7750396  0.2781446  0.0052782

 Al 
  0.0074712  0.5090020  0.0031434

 Al 
  0.0056742  0.7526929  0.2435572

 Al 
  0.2517598  0.5020890  0.2571989

 Al 
  0.2304304  0.7514776  0.9999146

 Al 
  0.0022189  0.9963702  0.4979852

 Al 
  0.9994988  0.2475942  0.7431055

 Al 
  0.2436600  0.9810356  0.7510519

 Al 
  0.2570739  0.2476202  0.5084092

 Al 
  0.0003552  0.5010507  0.4898161

 Al 
  0.9899436  0.7597965  0.7392938

 Al 
  0.2540741  0.4844636  0.7460608

 Al 
  0.2462576  0.7514059  0.5110044

 Al 
  0.4835590  0.4900067  0.0093003

 Al 
  0.5004468  0.7508366  0.2432182

 Al 
  0.7582434  0.4893990  0.2533699

 Al 
  0.7530667  0.7498057  0.0004059

 Al 
  0.4866677  0.9721573  0.5121974

 Al 
  0.5094587  0.2543117  0.7596629

 Al 
  0.7412950  0.0008267  0.7328338

 Al 
  0.7356505  0.2501052  0.5022338

 Al 
  0.5043587  0.4927380  0.4880922

 Al 
  0.4858311  0.7410648  0.7536372

 Al 
  0.7546557  0.5115366  0.7643384

 Al 
  0.7618385  0.7478986  0.4863831

