32 
charge = 0 
 Al 
  0.9963975  0.0110700  0.9879684

 Al 
  0.0092520  0.2580008  0.2471746

 Al 
  0.2547473  0.9875328  0.2578499

 Al 
  0.2557324  0.2487909  0.0018007

 Al 
  0.5211722  0.0042498  0.0064242

 Al 
  0.4750829  0.2429657  0.2512673

 Al 
  0.7487959  0.0352718  0.2441216

 Al 
  0.7749394  0.2779021  0.0055851

 Al 
  0.0073944  0.5089971  0.0034206

 Al 
  0.0058005  0.7529008  0.2438468

 Al 
  0.2516930  0.5021138  0.2567559

 Al 
  0.2303673  0.7514851  0.9996225

 Al 
  0.0021447  0.9964309  0.4984246

 Al 
  0.9998564  0.2476833  0.7434657

 Al 
  0.2436129  0.9807930  0.7514492

 Al 
  0.2569056  0.2473900  0.5082632

 Al 
  0.0007834  0.5009839  0.4898817

 Al 
  0.9900908  0.7593844  0.7396589

 Al 
  0.2538278  0.4845354  0.7462514

 Al 
  0.2463319  0.7514764  0.5105205

 Al 
  0.4839290  0.4899770  0.0093659

 Al 
  0.5003143  0.7507091  0.2433531

 Al 
  0.7581048  0.4892654  0.2535889

 Al 
  0.7530283  0.7497711  0.0002673

 Al 
  0.4866120  0.9721932  0.5121912

 Al 
  0.5094228  0.2545084  0.7592792

 Al 
  0.7416762  0.0007203  0.7325702

 Al 
  0.7359425  0.2499109  0.5022821

 Al 
  0.5042832  0.4928110  0.4881182

 Al 
  0.4856628  0.7412207  0.7540382

 Al 
  0.7542634  0.5110576  0.7647876

 Al 
  0.7618336  0.7478974  0.4864017

