32 
charge = 0 
 Al 
  0.9922232  0.0081976  0.9875934

 Al 
  0.0121863  0.2585194  0.2457564

 Al 
  0.2545753  0.9874524  0.2641849

 Al 
  0.2543686  0.2452057  0.0040233

 Al 
  0.5278452  0.0047386  0.0053673

 Al 
  0.4749196  0.2425165  0.2559502

 Al 
  0.7468541  0.0317806  0.2462626

 Al 
  0.7751423  0.2790629  0.0033117

 Al 
  0.0080157  0.5089488  0.0014368

 Al 
  0.0047300  0.7516596  0.2420895

 Al 
  0.2520865  0.5020395  0.2596629

 Al 
  0.2312893  0.7514975  0.0014653

 Al 
  0.0025568  0.9963034  0.4953517

 Al 
  0.9975236  0.2472477  0.7410376

 Al 
  0.2440226  0.9829414  0.7490545

 Al 
  0.2578684  0.2487723  0.5091951

 Al 
  0.9979865  0.5012759  0.4897901

 Al 
  0.9892245  0.7618212  0.7374462

 Al 
  0.2552893  0.4842594  0.7450535

 Al 
  0.2456809  0.7505074  0.5133904

 Al 
  0.4818648  0.4904671  0.0088956

 Al 
  0.5012685  0.7514826  0.2424781

 Al 
  0.7587916  0.4904299  0.2521484

 Al 
  0.7531929  0.7501250  0.0013452

 Al 
  0.4872865  0.9724246  0.5119610

 Al 
  0.5095478  0.2531620  0.7616999

 Al 
  0.7393062  0.0012772  0.7345169

 Al 
  0.7343238  0.2512697  0.5019789

 Al 
  0.5047139  0.4925511  0.4882444

 Al 
  0.4870341  0.7400512  0.7516163

 Al 
  0.7567138  0.5140389  0.7613843

 Al 
  0.7615663  0.7479753  0.4863051

