32 
charge = 0 
 Al 
  0.9951042  0.0102062  0.9877865

 Al 
  0.0101369  0.2582174  0.2466833

 Al 
  0.2547324  0.9874734  0.2598819

 Al 
  0.2553760  0.2477340  0.0025296

 Al 
  0.5233417  0.0044057  0.0061494

 Al 
  0.4749245  0.2428184  0.2527004

 Al 
  0.7481437  0.0343077  0.2447416

 Al 
  0.7751139  0.2783674  0.0049441

 Al 
  0.0075578  0.5090020  0.0028476

 Al 
  0.0055294  0.7524863  0.2432677

 Al 
  0.2518254  0.5020680  0.2576556

 Al 
  0.2305282  0.7514727  0.0002116

 Al 
  0.0022920  0.9963257  0.4975199

 Al 
  0.9991288  0.2475113  0.7427293

 Al 
  0.2437144  0.9813215  0.7506534

 Al 
  0.2572385  0.2478491  0.5085577

 Al 
  0.9999146  0.5011089  0.4897703

 Al 
  0.9897988  0.7602037  0.7389275

 Al 
  0.2543203  0.4844018  0.7458678

 Al 
  0.2461697  0.7513019  0.5114858

 Al 
  0.4832013  0.4900562  0.0092297

 Al 
  0.5005891  0.7509641  0.2430783

 Al 
  0.7583721  0.4895550  0.2531434

 Al 
  0.7531013  0.7498515  0.0005594

 Al 
  0.4867457  0.9721511  0.5121863

 Al 
  0.5094896  0.2541050  0.7600515

 Al 
  0.7409101  0.0009269  0.7331209

 Al 
  0.7353671  0.2503106  0.5021855

 Al 
  0.5044317  0.4926749  0.4880847

 Al 
  0.4860217  0.7408940  0.7532362

 Al 
  0.7550530  0.5120204  0.7638458

 Al 
  0.7618249  0.7479048  0.4863658

