32 
charge = 0 
 Al 
  0.9929867  0.0087384  0.9876207

 Al 
  0.0116368  0.2584612  0.2459816

 Al 
  0.2546322  0.9874449  0.2630724

 Al 
  0.2546594  0.2458962  0.0036434

 Al 
  0.5266930  0.0046508  0.0055938

 Al 
  0.4748800  0.2425932  0.2550851

 Al 
  0.7471746  0.0324934  0.2458418

 Al 
  0.7751770  0.2789194  0.0037671

 Al 
  0.0078820  0.5089699  0.0018266

 Al 
  0.0049639  0.7518662  0.2423865

 Al 
  0.2520209  0.5020383  0.2591307

 Al 
  0.2310393  0.7514838  0.0011410

 Al 
  0.0024962  0.9962836  0.4959433

 Al 
  0.9979469  0.2473034  0.7414930

 Al 
  0.2439310  0.9824600  0.7494567

 Al 
  0.2577162  0.2485397  0.5090280

 Al 
  0.9984964  0.5012450  0.4897530

 Al 
  0.9893669  0.7614165  0.7378211

 Al 
  0.2550480  0.4842805  0.7452638

 Al 
  0.2458257  0.7507661  0.5129152

 Al 
  0.4821865  0.4903309  0.0089872

 Al 
  0.5010816  0.7513514  0.2426353

 Al 
  0.7587013  0.4901713  0.2524132

 Al 
  0.7531768  0.7500433  0.0011225

 Al 
  0.4871145  0.9723095  0.5120464

 Al 
  0.5095441  0.2534169  0.7612717

 Al 
  0.7397171  0.0011980  0.7341295

 Al 
  0.7345713  0.2510086  0.5020333

 Al 
  0.5046446  0.4925610  0.4881739

 Al 
  0.4867408  0.7402876  0.7520259

 Al 
  0.7562856  0.5135204  0.7620798

 Al 
  0.7616640  0.7479494  0.4863200

