32 
charge = 0 
 Al 
  0.9937194  0.0092533  0.9876615

 Al 
  0.0111121  0.2583919  0.2462106

 Al 
  0.2546767  0.9874474  0.2619858

 Al 
  0.2549230  0.2465472  0.0032684

 Al 
  0.5255594  0.0045666  0.0057992

 Al 
  0.4748676  0.2426699  0.2542560

 Al 
  0.7474964  0.0331506  0.2454495

 Al 
  0.7751832  0.2787560  0.0041904

 Al 
  0.0077620  0.5089859  0.0021917

 Al 
  0.0051742  0.7520729  0.2426823

 Al 
  0.2519553  0.5020432  0.2586209

 Al 
  0.2308302  0.7514752  0.0008242

 Al 
  0.0024318  0.9962811  0.4965014

 Al 
  0.9983540  0.2473665  0.7419249

 Al 
  0.2438493  0.9820318  0.7498564

 Al 
  0.2575603  0.2483083  0.5088659

 Al 
  0.9989864  0.5012066  0.4897369

 Al 
  0.9895104  0.7610131  0.7381924

 Al 
  0.2548067  0.4843102  0.7454693

 Al 
  0.2459544  0.7509839  0.5124400

 Al 
  0.4825157  0.4902183  0.0090738

 Al 
  0.5009059  0.7512215  0.2427875

 Al 
  0.7586011  0.4899399  0.2526669

 Al 
  0.7531558  0.7499703  0.0009170

 Al 
  0.4869672  0.9722254  0.5121108

 Al 
  0.5095329  0.2536582  0.7608547

 Al 
  0.7401218  0.0011126  0.7337681

 Al 
  0.7348275  0.2507623  0.5020853

 Al 
  0.5045740  0.4925858  0.4881256

 Al 
  0.4864747  0.7405054  0.7524306

 Al 
  0.7558673  0.5130105  0.7627197

 Al 
  0.7617383  0.7479296  0.4863348

