32 
charge = 0 
 Al 
  0.9869969  0.0043649  0.9877481

 Al 
  0.0159646  0.2585676  0.2445089

 Al 
  0.2539850  0.9876405  0.2713950

 Al 
  0.2520754  0.2401441  0.0063957

 Al 
  0.5351084  0.0053562  0.0035568

 Al 
  0.4758143  0.2420004  0.2618843

 Al 
  0.7450064  0.0262846  0.2494876

 Al 
  0.7742884  0.2794404  0.9998985

 Al 
  0.0091307  0.5086815  0.9984815

 Al 
  0.0027944  0.7504245  0.2402987

 Al 
  0.2524863  0.5021991  0.2632988

 Al 
  0.2337421  0.7517586  0.0035506

 Al 
  0.0027647  0.9968170  0.4910499

 Al 
  0.9946550  0.2470410  0.7378100

 Al 
  0.2447738  0.9869982  0.7466771

 Al 
  0.2586617  0.2501794  0.5103633

 Al 
  0.9945003  0.5012735  0.4905215

 Al 
  0.9883929  0.7642914  0.7351542

 Al 
  0.2566878  0.4843622  0.7437305

 Al 
  0.2444916  0.7480298  0.5161836

 Al 
  0.4801198  0.4917516  0.0082335

 Al 
  0.5026422  0.7523019  0.2414621

 Al 
  0.7590986  0.4925684  0.2502896

 Al 
  0.7531917  0.7507586  0.0030283

 Al 
  0.4889176  0.9738330  0.5110118

 Al 
  0.5093906  0.2513848  0.7645030

 Al 
  0.7367222  0.0016113  0.7373595

 Al 
  0.7330825  0.2531261  0.5016274

 Al 
  0.5051322  0.4928630  0.4891515

 Al 
  0.4894461  0.7382679  0.7491176

 Al 
  0.7594735  0.5173816  0.7559898

 Al 
  0.7604586  0.7482996  0.4862309

