32 
charge = 0 
 Al 
  0.9812373  0.9999814  0.9884201

 Al 
  0.0199483  0.2580627  0.2436055

 Al 
  0.2530481  0.9879833  0.2786619

 Al 
  0.2492092  0.2339798  0.0086605

 Al 
  0.5420301  0.0061371  0.0012438

 Al 
  0.4778390  0.2414237  0.2682776

 Al 
  0.7435832  0.0192787  0.2537374

 Al 
  0.7724123  0.2789602  0.9957440

 Al 
  0.0107099  0.5081716  0.9947045

 Al 
  0.0001807  0.7493354  0.2387518

 Al 
  0.2528650  0.5026372  0.2672776

 Al 
  0.2376702  0.7524368  0.0056408

 Al 
  0.0025024  0.9979704  0.4859735

 Al 
  0.9915116  0.2470398  0.7340342

 Al 
  0.2457849  0.9926316  0.7446958

 Al 
  0.2590491  0.2514517  0.5117630

 Al 
  0.9906453  0.5009195  0.4920449

 Al 
  0.9877296  0.7666675  0.7330887

 Al 
  0.2577843  0.4848250  0.7425350

 Al 
  0.2429038  0.7442540  0.5185288

 Al 
  0.4788711  0.4936365  0.0075033

 Al 
  0.5042399  0.7531026  0.2404943

 Al 
  0.7589439  0.4954346  0.2480744

 Al 
  0.7530258  0.7513613  0.0049800

 Al 
  0.4914806  0.9762945  0.5094315

 Al 
  0.5088708  0.2494282  0.7674001

 Al 
  0.7343597  0.0016398  0.7405846

 Al 
  0.7324910  0.2551940  0.5012524

 Al 
  0.5055616  0.4939335  0.4908618

 Al 
  0.4927739  0.7361232  0.7467984

 Al 
  0.7622432  0.5207156  0.7490483

 Al 
  0.7584959  0.7489864  0.4861826

