32 
charge = 0 
 Al 
  0.9840936  0.0021719  0.9880278

 Al 
  0.0180140  0.2583795  0.2439953

 Al 
  0.2535431  0.9878063  0.2751411

 Al 
  0.2506596  0.2371157  0.0075788

 Al 
  0.5387357  0.0057324  0.0024182

 Al 
  0.4767029  0.2417133  0.2651366

 Al 
  0.7442119  0.0228689  0.2515309

 Al 
  0.7734518  0.2792993  0.9978479

 Al 
  0.0098844  0.5084538  0.9966474

 Al 
  0.0015309  0.7498453  0.2394659

 Al 
  0.2526830  0.5023860  0.2653086

 Al 
  0.2355688  0.7520407  0.0046272

 Al 
  0.0027090  0.9973293  0.4885253

 Al 
  0.9930734  0.2470187  0.7359363

 Al 
  0.2452626  0.9897010  0.7455992

 Al 
  0.2589253  0.2508539  0.5110477

 Al 
  0.9925610  0.5011386  0.4912084

 Al 
  0.9880253  0.7655166  0.7340565

 Al 
  0.2572979  0.4845552  0.7430895

 Al 
  0.2437206  0.7462440  0.5174533

 Al 
  0.4794107  0.4926538  0.0078610

 Al 
  0.5034429  0.7527152  0.2409497

 Al 
  0.7590812  0.4939582  0.2492030

 Al 
  0.7531273  0.7510952  0.0040147

 Al 
  0.4901106  0.9749691  0.5102755

 Al 
  0.5091753  0.2503935  0.7659856

 Al 
  0.7354624  0.0016682  0.7389931

 Al 
  0.7326853  0.2541718  0.5014368

 Al 
  0.5053450  0.4933035  0.4899250

 Al 
  0.4910388  0.7372011  0.7479011

 Al 
  0.7609017  0.5191067  0.7526100

 Al 
  0.7595639  0.7485966  0.4862024

