32 
charge = 0 
 Al 
  0.9879375  0.0050666  0.9876838

 Al 
  0.0152888  0.2585973  0.2447008

 Al 
  0.2541137  0.9875934  0.2701438

 Al 
  0.2525172  0.2410933  0.0059948

 Al 
  0.5338733  0.0052411  0.0039095

 Al 
  0.4755841  0.2420932  0.2608212

 Al 
  0.7452973  0.0273402  0.2488652

 Al 
  0.7745087  0.2794379  0.0005433

 Al 
  0.0089067  0.5087434  0.9990471

 Al 
  0.0031781  0.7506262  0.2405933

 Al 
  0.2524194  0.5021534  0.2626454

 Al 
  0.2332162  0.7516893  0.0031904

 Al 
  0.0027561  0.9966821  0.4918507

 Al 
  0.9951686  0.2470596  0.7384053

 Al 
  0.2446240  0.9861839  0.7470620

 Al 
  0.2585503  0.2499468  0.5101480

 Al 
  0.9951277  0.5012982  0.4903383

 Al 
  0.9885266  0.7638768  0.7355354

 Al 
  0.2564663  0.4843188  0.7439545

 Al 
  0.2447280  0.7485521  0.5157331

 Al 
  0.4803846  0.4914843  0.0083548

 Al 
  0.5023873  0.7521620  0.2416366

 Al 
  0.7590775  0.4921440  0.2506324

 Al 
  0.7532040  0.7506423  0.0027127

 Al 
  0.4885736  0.9735124  0.5112222

 Al 
  0.5094414  0.2517078  0.7640117

 Al 
  0.7371578  0.0015754  0.7368323

 Al 
  0.7332545  0.2527870  0.5016893

 Al 
  0.5050616  0.4927615  0.4889387

 Al 
  0.4889671  0.7386045  0.7495347

 Al 
  0.7589958  0.5168036  0.7570306

 Al 
  0.7607086  0.7482229  0.4862420

