32 
charge = 0 
 Al 
  0.9821704  0.0007005  0.9882790

 Al 
  0.0193283  0.2581803  0.2437194

 Al 
  0.2532164  0.9879251  0.2775308

 Al 
  0.2496881  0.2350230  0.0083164

 Al 
  0.5409856  0.0059997  0.0016311

 Al 
  0.4774368  0.2415190  0.2672590

 Al 
  0.7437713  0.0204779  0.2529937

 Al 
  0.7727761  0.2790926  0.9964408

 Al 
  0.0104302  0.5082706  0.9953554

 Al 
  0.0006336  0.7494951  0.2389721

 Al 
  0.2528068  0.5025469  0.2666353

 Al 
  0.2369499  0.7522920  0.0053141

 Al 
  0.0025890  0.9977464  0.4868138

 Al 
  0.9920227  0.2470286  0.7346629

 Al 
  0.2456091  0.9916440  0.7449743

 Al 
  0.2590243  0.2512636  0.5115242

 Al 
  0.9912727  0.5010012  0.4917541

 Al 
  0.9878187  0.7662962  0.7333919

 Al 
  0.2576382  0.4847285  0.7427070

 Al 
  0.2431761  0.7449297  0.5181971

 Al 
  0.4790295  0.4933048  0.0076184

 Al 
  0.5039788  0.7529788  0.2406366

 Al 
  0.7590020  0.4949408  0.2484506

 Al 
  0.7530630  0.7512846  0.0046668

 Al 
  0.4910103  0.9758391  0.5097198

 Al 
  0.5089822  0.2497413  0.7669435

 Al 
  0.7347025  0.0016583  0.7400698

 Al 
  0.7325318  0.2548624  0.5013118

 Al 
  0.5054886  0.4937045  0.4905364

 Al 
  0.4921885  0.7364772  0.7471487

 Al 
  0.7618125  0.5202007  0.7502376

 Al 
  0.7588659  0.7488466  0.4861888

