32 
charge = 0 
 Al 
  0.9745396  0.9947713  0.9899225

 Al 
  0.0237067  0.2567088  0.2433382

 Al 
  0.2516682  0.9883335  0.2860106

 Al 
  0.2457552  0.2256039  0.0107544

 Al 
  0.5481894  0.0073239  0.9985112

 Al 
  0.4820170  0.2407183  0.2751844

 Al 
  0.7428877  0.0096369  0.2600911

 Al 
  0.7689285  0.2773043  0.9903978

 Al 
  0.0130192  0.5071865  0.9893731

 Al 
  0.9965658  0.7483503  0.2376368

 Al 
  0.2532214  0.5036310  0.2718133

 Al 
  0.2442429  0.7541966  0.0078783

 Al 
  0.0009566  0.0001906  0.4798649

 Al 
  0.9877531  0.2471895  0.7292226

 Al 
  0.2471573  0.0008205  0.7433592

 Al 
  0.2584835  0.2525481  0.5137184

 Al 
  0.9861183  0.4999480  0.4946636

 Al 
  0.9874350  0.7693184  0.7313536

 Al 
  0.2582793  0.4858868  0.7417170

 Al 
  0.2407826  0.7385662  0.5202143

 Al 
  0.4784553  0.4963294  0.0067719

 Al 
  0.5060727  0.7538538  0.2397988

 Al 
  0.7579662  0.4993528  0.2449866

 Al 
  0.7525692  0.7512512  0.0070058

 Al 
  0.4958307  0.9804081  0.5069848

 Al 
  0.5076011  0.2473380  0.7704346

 Al 
  0.7327249  0.0011447  0.7438171

 Al 
  0.7331481  0.2574526  0.5008403

 Al 
  0.5062608  0.4966165  0.4939768

 Al 
  0.4977699  0.7335788  0.7445968

 Al 
  0.7649720  0.5239097  0.7395970

 Al 
  0.7549205  0.7505346  0.4861690

