32 
charge = 0 
 Al 
  0.9770927  0.9967638  0.9892221

 Al 
  0.0224791  0.2573511  0.2432887

 Al 
  0.2522326  0.9882283  0.2834080

 Al 
  0.2470608  0.2290505  0.0100540

 Al 
  0.5461957  0.0068177  0.9995149

 Al 
  0.4800740  0.2409881  0.2726598

 Al 
  0.7429867  0.0135884  0.2573969

 Al 
  0.7704779  0.2781050  0.9925264

 Al 
  0.0120650  0.5076358  0.9915821

 Al 
  0.9980323  0.7486919  0.2379400

 Al 
  0.2531013  0.5031583  0.2701005

 Al 
  0.2413655  0.7533204  0.0070417

 Al 
  0.0018068  0.9991820  0.4821977

 Al 
  0.9892159  0.2471239  0.7311395

 Al 
  0.2466078  0.9974172  0.7437058

 Al 
  0.2589018  0.2521930  0.5129065

 Al 
  0.9878484  0.5004171  0.4935436

 Al 
  0.9874561  0.7682936  0.7319068

 Al 
  0.2582335  0.4853844  0.7419175

 Al 
  0.2416254  0.7409398  0.5197465

 Al 
  0.4784194  0.4952255  0.0070219

 Al 
  0.5053871  0.7536100  0.2399708

 Al 
  0.7584909  0.4977724  0.2462712

 Al 
  0.7527981  0.7514962  0.0063079

 Al 
  0.4939112  0.9786223  0.5080021

 Al 
  0.5082162  0.2480843  0.7693505

 Al 
  0.7331147  0.0014281  0.7427392

 Al 
  0.7326469  0.2566296  0.5009938

 Al 
  0.5059329  0.4953121  0.4925882

 Al 
  0.4956562  0.7345416  0.7453641

 Al 
  0.7640352  0.5228318  0.7434298

 Al 
  0.7565306  0.7497970  0.4861653

