32 
charge = 0 
 Al 
  0.9705237  0.9917368  0.9918915

 Al 
  0.0238491  0.2549614  0.2445263

 Al 
  0.2507599  0.9881293  0.2888038

 Al 
  0.2440213  0.2181649  0.0112631

 Al 
  0.5487897  0.0083907  0.9976895

 Al 
  0.4876207  0.2404237  0.2783439

 Al 
  0.7437392  0.0016435  0.2660326

 Al 
  0.7650785  0.2751349  0.9864561

 Al 
  0.0149201  0.5059626  0.9846084

 Al 
  0.9938765  0.7478590  0.2379808

 Al 
  0.2533278  0.5050134  0.2743800

 Al 
  0.2513873  0.7572261  0.0091877

 Al 
  0.9976301  0.0029244  0.4765569

 Al 
  0.9851790  0.2471610  0.7256844

 Al 
  0.2481622  0.0078103  0.7437478

 Al 
  0.2564019  0.2527845  0.5153643

 Al 
  0.9835305  0.4986548  0.4968207

 Al 
  0.9880748  0.7712403  0.7310987

 Al 
  0.2574266  0.4874214  0.7422838

 Al 
  0.2394065  0.7338238  0.5198951

 Al 
  0.4799106  0.4984679  0.0066197

 Al 
  0.5068907  0.7538562  0.2403062

 Al 
  0.7560294  0.5021954  0.2421724

 Al 
  0.7516905  0.7490607  0.0072546

 Al 
  0.5005198  0.9846790  0.5051309

 Al 
  0.5056532  0.2466932  0.7714383

 Al 
  0.7339785  0.0000545  0.7440127

 Al 
  0.7356307  0.2583845  0.5005136

 Al 
  0.5073152  0.5006138  0.4974692

 Al 
  0.5024467  0.7323598  0.7437751

 Al 
  0.7655500  0.5245458  0.7323090

 Al 
  0.7506807  0.7526224  0.4863831

