32 
charge = 0 
 Al 
  0.9700040  0.9913779  0.9923704

 Al 
  0.0233825  0.2545728  0.2449606

 Al 
  0.2506708  0.9879919  0.2888570

 Al 
  0.2438939  0.2166700  0.0112111

 Al 
  0.5482278  0.0085738  0.9978244

 Al 
  0.4889968  0.2404423  0.2785431

 Al 
  0.7440770  0.0001893  0.2671699

 Al 
  0.7642307  0.2746510  0.9857977

 Al 
  0.0152567  0.5056755  0.9836654

 Al 
  0.9934644  0.7477798  0.2382333

 Al 
  0.2533241  0.5053376  0.2746745

 Al 
  0.2529751  0.7580652  0.0093609

 Al 
  0.9966920  0.0035629  0.4762747

 Al 
  0.9847693  0.2471004  0.7251126

 Al 
  0.2483293  0.0090676  0.7439978

 Al 
  0.2557906  0.2527573  0.5156366

 Al 
  0.9832657  0.4983776  0.4971301

 Al 
  0.9883347  0.7715794  0.7312039

 Al 
  0.2570999  0.4878261  0.7425981

 Al 
  0.2392431  0.7330182  0.5196079

 Al 
  0.4804601  0.4988280  0.0066618

 Al 
  0.5069031  0.7537548  0.2405920

 Al 
  0.7554948  0.5026162  0.2416081

 Al 
  0.7514269  0.7482860  0.0070256

 Al 
  0.5014999  0.9856071  0.5048710

 Al 
  0.5051495  0.2467638  0.7713566

 Al 
  0.7346307  0.9997612  0.7436365

 Al 
  0.7363645  0.2583944  0.5004282

 Al 
  0.5075776  0.5016014  0.4982328

 Al 
  0.5033625  0.7323202  0.7437590

 Al 
  0.7653742  0.5243515  0.7311024

 Al 
  0.7497265  0.7530976  0.4864970

