32 
charge = 0 
 Al 
  0.9688679  0.9906948  0.9941463

 Al 
  0.0207787  0.2532709  0.2467576

 Al 
  0.2506151  0.9873286  0.2880649

 Al 
  0.2439298  0.2117049  0.0108522

 Al 
  0.5450139  0.0090590  0.9989147

 Al 
  0.4940597  0.2407232  0.2783006

 Al 
  0.7454532  0.9957725  0.2705881

 Al 
  0.7612643  0.2729964  0.9838882

 Al 
  0.0162504  0.5046470  0.9806024

 Al 
  0.9924323  0.7474853  0.2394411

 Al 
  0.2532548  0.5064366  0.2751510

 Al 
  0.2585293  0.7613621  0.0097347

 Al 
  0.9931167  0.0058215  0.4762623

 Al 
  0.9836196  0.2467452  0.7235941

 Al 
  0.2488231  0.0127593  0.7450795

 Al 
  0.2534528  0.2525729  0.5162999

 Al 
  0.9830070  0.4975224  0.4977452

 Al 
  0.9894894  0.7725892  0.7318326

 Al 
  0.2557485  0.4894263  0.7440807

 Al 
  0.2389894  0.7307980  0.5182479

 Al 
  0.4828338  0.4998366  0.0069415

 Al 
  0.5065875  0.7532003  0.2419818

 Al 
  0.7534293  0.5036211  0.2397641

 Al 
  0.7503366  0.7450176  0.0055950

 Al 
  0.5046594  0.9888855  0.5043426

 Al 
  0.5032833  0.2474296  0.7704049

 Al 
  0.7375934  0.9986808  0.7415821

 Al 
  0.7392184  0.2580120  0.5000446

 Al 
  0.5084835  0.5051643  0.5008255

 Al 
  0.5062584  0.7327335  0.7440349

 Al 
  0.7641602  0.5230211  0.7277734

 Al 
  0.7464618  0.7546792  0.4871244

