32 
charge = 0 
 Al 
  0.9685325  0.9905760  0.9952787

 Al 
  0.0187020  0.2525469  0.2479494

 Al 
  0.2507165  0.9868410  0.2871120

 Al 
  0.2441909  0.2088783  0.0106071

 Al 
  0.5424645  0.0092396  0.9998762

 Al 
  0.4972254  0.2410326  0.2776521

 Al 
  0.7463455  0.9935003  0.2722291

 Al 
  0.7594748  0.2720237  0.9829489

 Al 
  0.0167417  0.5040184  0.9789156

 Al 
  0.9920499  0.7472736  0.2403334

 Al 
  0.2531781  0.5070368  0.2751225

 Al 
  0.2618521  0.7635464  0.0098275

 Al 
  0.9908841  0.0071605  0.4768167

 Al 
  0.9830875  0.2464470  0.7229840

 Al 
  0.2490755  0.0145339  0.7457886

 Al 
  0.2519813  0.2524343  0.5164856

 Al 
  0.9832385  0.4971103  0.4978194

 Al 
  0.9903210  0.7730818  0.7323350

 Al 
  0.2548426  0.4905067  0.7451785

 Al 
  0.2390179  0.7298413  0.5172640

 Al 
  0.4844995  0.5002908  0.0071766

 Al 
  0.5062027  0.7527622  0.2430536

 Al 
  0.7520927  0.5039478  0.2387369

 Al 
  0.7495867  0.7427825  0.0043760

 Al 
  0.5063388  0.9909039  0.5042597

 Al 
  0.5021249  0.2480521  0.7694458

 Al 
  0.7396998  0.9980286  0.7400166

 Al 
  0.7410425  0.2575528  0.4997475

 Al 
  0.5089897  0.5073066  0.5023118

 Al 
  0.5077991  0.7333350  0.7443926

 Al 
  0.7631132  0.5218640  0.7262858

 Al 
  0.7445881  0.7555406  0.4876689

