32 
charge = 0 
 Al 
  0.9693592  0.9909633  0.9931847

 Al 
  0.0223232  0.2539491  0.2457601

 Al 
  0.2506015  0.9877110  0.2886441

 Al 
  0.2438320  0.2142963  0.0110638

 Al 
  0.5469234  0.0088312  0.9982340

 Al 
  0.4913296  0.2405351  0.2785865

 Al 
  0.7446946  0.9980038  0.2688815

 Al 
  0.7628397  0.2738689  0.9848374

 Al 
  0.0157542  0.5051965  0.9821865

 Al 
  0.9929088  0.7476486  0.2387456

 Al 
  0.2533018  0.5058648  0.2749926

 Al 
  0.2555814  0.7595490  0.0095750

 Al 
  0.9950572  0.0046211  0.4761002

 Al 
  0.9841815  0.2469605  0.7243156

 Al 
  0.2485756  0.0109264  0.7444780

 Al 
  0.2547225  0.2526830  0.5160042

 Al 
  0.9830268  0.4979518  0.4975038

 Al 
  0.9888347  0.7720843  0.7314576

 Al 
  0.2564984  0.4885426  0.7432281

 Al 
  0.2390698  0.7318685  0.5190263

 Al 
  0.4814984  0.4993453  0.0067719

 Al 
  0.5068153  0.7535271  0.2411737

 Al 
  0.7545579  0.5031694  0.2407208

 Al 
  0.7509443  0.7468442  0.0064638

 Al 
  0.5030370  0.9871355  0.5045555

 Al 
  0.5042906  0.2470063  0.7710262

 Al 
  0.7359104  0.9992599  0.7427887

 Al 
  0.7376603  0.2582867  0.5002648

 Al 
  0.5080095  0.5032622  0.4994654

 Al 
  0.5047770  0.7324142  0.7438320

 Al 
  0.7649064  0.5238379  0.7293872

 Al 
  0.7481771  0.7538587  0.4867469

