32 
charge = 0 
 Al 
  0.9695572  0.9910846  0.9928989

 Al 
  0.0227266  0.2541632  0.2454730

 Al 
  0.2506163  0.9878150  0.2887543

 Al 
  0.2438357  0.2151094  0.0111207

 Al 
  0.5474222  0.0087483  0.9980694

 Al 
  0.4905116  0.2404943  0.2786075

 Al 
  0.7444730  0.9987352  0.2683097

 Al 
  0.7633224  0.2741387  0.9851554

 Al 
  0.0155896  0.5053636  0.9826902

 Al 
  0.9930857  0.7476944  0.2385550

 Al 
  0.2533117  0.5056829  0.2749035

 Al 
  0.2546780  0.7590206  0.0095094

 Al 
  0.9956351  0.0042535  0.4761237

 Al 
  0.9843745  0.2470150  0.7245730

 Al 
  0.2484939  0.0103089  0.7443047

 Al 
  0.2551000  0.2527115  0.5158878

 Al 
  0.9830838  0.4980954  0.4973925

 Al 
  0.9886528  0.7719160  0.7313598

 Al 
  0.2567150  0.4882865  0.7429954

 Al 
  0.2391181  0.7322435  0.5192404

 Al 
  0.4811210  0.4991758  0.0067286

 Al 
  0.5068598  0.7536137  0.2409571

 Al 
  0.7548896  0.5029961  0.2410240

 Al 
  0.7511188  0.7473652  0.0066828

 Al 
  0.5025147  0.9866046  0.5046495

 Al 
  0.5045926  0.2469061  0.7711660

 Al 
  0.7354413  0.9994357  0.7431105

 Al 
  0.7372011  0.2583399  0.5003255

 Al 
  0.5078598  0.5026830  0.4990409

 Al 
  0.5042993  0.7323598  0.7437936

 Al 
  0.7650908  0.5240409  0.7299478

 Al 
  0.7487105  0.7535976  0.4866517

