32 
charge = 0 
 Al 
  0.9687379  0.9906391  0.9945052

 Al 
  0.0201463  0.2530345  0.2471350

 Al 
  0.2506398  0.9871776  0.2877890

 Al 
  0.2439991  0.2107866  0.0107717

 Al 
  0.5442342  0.0091258  0.9992042

 Al 
  0.4950671  0.2408123  0.2781261

 Al 
  0.7457366  0.9950188  0.2711475

 Al 
  0.7606913  0.2726833  0.9835738

 Al 
  0.0164150  0.5044466  0.9800505

 Al 
  0.9922937  0.7474209  0.2397159

 Al 
  0.2532325  0.5066358  0.2751646

 Al 
  0.2595961  0.7620489  0.0097743

 Al 
  0.9924026  0.0062534  0.4764009

 Al 
  0.9834377  0.2466549  0.7233763

 Al 
  0.2489060  0.0133607  0.7453059

 Al 
  0.2529838  0.2525296  0.5163767

 Al 
  0.9830541  0.4973813  0.4977897

 Al 
  0.9897468  0.7727563  0.7319860

 Al 
  0.2554626  0.4897641  0.7444186

 Al 
  0.2389869  0.7304638  0.5179422

 Al 
  0.4833523  0.4999926  0.0070133

 Al 
  0.5064762  0.7530667  0.2423085

 Al 
  0.7530073  0.5037461  0.2394287

 Al 
  0.7501027  0.7443171  0.0052287

 Al 
  0.5052163  0.9895277  0.5042993

 Al 
  0.5029132  0.2476152  0.7701240

 Al 
  0.7382493  0.9984716  0.7410982

 Al 
  0.7397975  0.2578796  0.4999542

 Al 
  0.5086506  0.5058549  0.5013081

 Al 
  0.5067670  0.7329006  0.7441364

 Al 
  0.7638458  0.5226746  0.7272610

 Al 
  0.7458517  0.7549639  0.4872853

