32 
charge = 0 
 Al 
  0.9684570  0.9905710  0.9956920

 Al 
  0.0178939  0.2523006  0.2483837

 Al 
  0.2507685  0.9866591  0.2867135

 Al 
  0.2443134  0.2078956  0.0105267

 Al 
  0.5414794  0.0092854  0.0002562

 Al 
  0.4983689  0.2411663  0.2773526

 Al 
  0.7466660  0.9927442  0.2727414

 Al 
  0.7588350  0.2716784  0.9826419

 Al 
  0.0169002  0.5037931  0.9783389

 Al 
  0.9919484  0.7471895  0.2406725

 Al 
  0.2531446  0.5072348  0.2750644

 Al 
  0.2630340  0.7643545  0.0098411

 Al 
  0.9900884  0.0076308  0.4770964

 Al 
  0.9829204  0.2463294  0.7228157

 Al 
  0.2491597  0.0150983  0.7460410

 Al 
  0.2514541  0.2523835  0.5165153

 Al 
  0.9833758  0.4969828  0.4978021

 Al 
  0.9906378  0.7732377  0.7325281

 Al 
  0.2545097  0.4909101  0.7455980

 Al 
  0.2390525  0.7295604  0.5168940

 Al 
  0.4851257  0.5004307  0.0072694

 Al 
  0.5060405  0.7525939  0.2434719

 Al 
  0.7516039  0.5040221  0.2383842

 Al 
  0.7493070  0.7419558  0.0038897

 Al 
  0.5068969  0.9916353  0.5042659

 Al 
  0.5017103  0.2483033  0.7690473

 Al 
  0.7404893  0.9977984  0.7394250

 Al 
  0.7417009  0.2573585  0.4996300

 Al 
  0.5091604  0.5080627  0.5028278

 Al 
  0.5083177  0.7336072  0.7445485

 Al 
  0.7626986  0.5213999  0.7258292

 Al 
  0.7439384  0.7558277  0.4878929

