32 
charge = 0 
 Al 
  0.9686525  0.9912715  0.0001671

 Al 
  0.0081778  0.2502129  0.2526422

 Al 
  0.2515903  0.9847569  0.2815826

 Al 
  0.2461042  0.1988763  0.0102767

 Al 
  0.5300678  0.0091654  0.0047473

 Al 
  0.5101554  0.2431823  0.2726276

 Al 
  0.7496894  0.9865081  0.2753577

 Al 
  0.7522907  0.2680944  0.9802064

 Al 
  0.0180041  0.5014517  0.9733887

 Al 
  0.9918061  0.7460262  0.2445423

 Al 
  0.2526397  0.5085652  0.2731189

 Al 
  0.2747376  0.7731387  0.0093523

 Al 
  0.9827372  0.0118571  0.4820677

 Al 
  0.9819464  0.2449755  0.7227402

 Al 
  0.2499158  0.0187194  0.7482786

 Al 
  0.2462910  0.2519454  0.5155735

 Al 
  0.9861603  0.4964086  0.4964705

 Al 
  0.9944334  0.7741436  0.7348250

 Al 
  0.2510544  0.4955151  0.7504307

 Al 
  0.2400290  0.7284974  0.5128372

 Al 
  0.4921167  0.5011720  0.0083263

 Al 
  0.5038575  0.7506089  0.2486770

 Al 
  0.7465088  0.5036508  0.2353336

 Al 
  0.7462304  0.7332038  0.9976808

 Al 
  0.5111443  0.9995248  0.5053228

 Al 
  0.4975707  0.2515346  0.7635327

 Al 
  0.7490533  0.9956388  0.7331803

 Al 
  0.7482105  0.2548166  0.4980348

 Al 
  0.5104054  0.5150933  0.5074625

 Al 
  0.5126083  0.7381045  0.7469643

 Al 
  0.7576593  0.5154176  0.7231635

 Al 
  0.7381491  0.7579241  0.4910896

