32 
charge = 0 
 Al 
  0.9684954  0.9910549  0.9993082

 Al 
  0.0101517  0.2505284  0.2519170

 Al 
  0.2514133  0.9850923  0.2826432

 Al 
  0.2457180  0.2003601  0.0102049

 Al 
  0.5323103  0.0092780  0.0038600

 Al 
  0.5079909  0.2427132  0.2737278

 Al 
  0.7491956  0.9874437  0.2753044

 Al 
  0.7534961  0.2687800  0.9805579

 Al 
  0.0178902  0.5018885  0.9741411

 Al 
  0.9917046  0.7462898  0.2437850

 Al 
  0.2527573  0.5084476  0.2736869

 Al 
  0.2726548  0.7714618  0.0095428

 Al 
  0.9839179  0.0111950  0.4808561

 Al 
  0.9820083  0.2452317  0.7224865

 Al 
  0.2497896  0.0183828  0.7479481

 Al 
  0.2471883  0.2520061  0.5159472

 Al 
  0.9854611  0.4963937  0.4968714

 Al 
  0.9936501  0.7740941  0.7343597

 Al 
  0.2516794  0.4945968  0.7494815

 Al 
  0.2397654  0.7284132  0.5136045

 Al 
  0.4907678  0.5011373  0.0081258

 Al 
  0.5043191  0.7510012  0.2475830

 Al 
  0.7474444  0.5038810  0.2357953

 Al 
  0.7468120  0.7348139  0.9989926

 Al 
  0.5105997  0.9979989  0.5049861

 Al 
  0.4983083  0.2508539  0.7647505

 Al 
  0.7474457  0.9959990  0.7342978

 Al 
  0.7470794  0.2553426  0.4983912

 Al 
  0.5102693  0.5139337  0.5067187

 Al 
  0.5119747  0.7370068  0.7463962

 Al 
  0.7586766  0.5166947  0.7233677

 Al 
  0.7390686  0.7576840  0.4903594

