32 
charge = 0 
 Al 
  0.9683394  0.9907096  0.9974803

 Al 
  0.0141936  0.2513378  0.2502042

 Al 
  0.2510569  0.9858670  0.2848040

 Al 
  0.2449507  0.2039330  0.0102656

 Al 
  0.5370341  0.0093721  0.0019937

 Al 
  0.5032152  0.2418482  0.2757661

 Al 
  0.7479902  0.9898495  0.2744419

 Al 
  0.7561420  0.2702292  0.9814885

 Al 
  0.0174806  0.5028365  0.9760742

 Al 
  0.9916922  0.7467836  0.2421885

 Al 
  0.2529739  0.5079600  0.2745755

 Al 
  0.2679484  0.7678655  0.0097854

 Al 
  0.9868385  0.0095255  0.4786817

 Al 
  0.9823474  0.2457935  0.7223962

 Al 
  0.2494926  0.0170808  0.7470657

 Al 
  0.2492599  0.2521781  0.5164200

 Al 
  0.9842273  0.4965707  0.4975001

 Al 
  0.9920734  0.7737785  0.7334080

 Al 
  0.2530840  0.4926984  0.7474816

 Al 
  0.2393223  0.7287053  0.5152678

 Al 
  0.4878917  0.5008898  0.0076877

 Al 
  0.5052436  0.7518242  0.2454074

 Al 
  0.7495149  0.5041198  0.2369895

 Al 
  0.7480756  0.7383805  0.0016002

 Al 
  0.5089921  0.9947800  0.5044825

 Al 
  0.4999752  0.2494963  0.7670920

 Al 
  0.7439397  0.9968591  0.7368459

 Al 
  0.7444594  0.2564168  0.4990656

 Al 
  0.5098003  0.5111405  0.5048921

 Al 
  0.5103151  0.7350589  0.7453579

 Al 
  0.7607792  0.5192094  0.7242921

 Al 
  0.7413470  0.7568982  0.4889981

