32 
charge = 0 
 Al 
  0.9683617  0.9906094  0.9965658

 Al 
  0.0161230  0.2518093  0.2492872

 Al 
  0.2508997  0.9862705  0.2858138

 Al 
  0.2446067  0.2059032  0.0103794

 Al 
  0.5393396  0.0093498  0.0010891

 Al 
  0.5007574  0.2414781  0.2766323

 Al 
  0.7473269  0.9912591  0.2736746

 Al 
  0.7575046  0.2709631  0.9820454

 Al 
  0.0172046  0.5033216  0.9771880

 Al 
  0.9917875  0.7470001  0.2414051

 Al 
  0.2530667  0.5076172  0.2748725

 Al 
  0.2654732  0.7660660  0.0098361

 Al 
  0.9884597  0.0085850  0.4777994

 Al 
  0.9826110  0.2460720  0.7225496

 Al 
  0.2493292  0.0161551  0.7465583

 Al 
  0.2503638  0.2522796  0.5165128

 Al 
  0.9837446  0.4967539  0.4976969

 Al 
  0.9913259  0.7735285  0.7329513

 Al 
  0.2538092  0.4917764  0.7465064

 Al 
  0.2391627  0.7290716  0.5161032

 Al 
  0.4864673  0.5006819  0.0074712

 Al 
  0.5056680  0.7522239  0.2443926

 Al 
  0.7505779  0.5041137  0.2376764

 Al 
  0.7487080  0.7402047  0.0028068

 Al 
  0.5079848  0.9931736  0.5043352

 Al 
  0.5008502  0.2488676  0.7681365

 Al 
  0.7421712  0.9973281  0.7381640

 Al 
  0.7430684  0.2569167  0.4993664

 Al 
  0.5094921  0.5096060  0.5038686

 Al 
  0.5093411  0.7342619  0.7449186

 Al 
  0.7617828  0.5203653  0.7249950

 Al 
  0.7426291  0.7563858  0.4884053

