32 
charge = 0 
 Al 
  0.9683877  0.9908618  0.9984035

 Al 
  0.0121776  0.2509059  0.2510940

 Al 
  0.2512326  0.9854673  0.2837310

 Al 
  0.2453282  0.2020618  0.0102037

 Al 
  0.5346592  0.0093485  0.0029318

 Al 
  0.5056557  0.2422640  0.2747859

 Al 
  0.7486226  0.9885649  0.2749950

 Al 
  0.7547906  0.2694953  0.9809873

 Al 
  0.0177120  0.5023538  0.9750446

 Al 
  0.9916650  0.7465447  0.2429917

 Al 
  0.2528699  0.5082422  0.2741770

 Al 
  0.2703715  0.7696859  0.0096889

 Al 
  0.9853002  0.0104091  0.4797139

 Al 
  0.9821432  0.2455089  0.7223727

 Al 
  0.2496473  0.0178333  0.7475385

 Al 
  0.2481870  0.2520853  0.5162306

 Al 
  0.9848077  0.4964482  0.4972204

 Al 
  0.9928556  0.7739703  0.7338832

 Al 
  0.2523637  0.4936488  0.7484877

 Al 
  0.2395265  0.7284825  0.5144238

 Al 
  0.4893446  0.5010433  0.0079105

 Al 
  0.5047869  0.7514108  0.2464828

 Al 
  0.7484568  0.5040419  0.2363534

 Al 
  0.7474345  0.7365588  0.0003131

 Al 
  0.5098757  0.9964049  0.5047027

 Al 
  0.4991176  0.2501671  0.7659497

 Al 
  0.7457217  0.9964098  0.7355354

 Al 
  0.7458158  0.2558834  0.4987377

 Al 
  0.5100639  0.5126033  0.5058537

 Al 
  0.5112037  0.7359834  0.7458554

 Al 
  0.7597285  0.5179706  0.7237439

 Al 
  0.7401441  0.7573387  0.4896565

