32 
charge = 0 
 Al 
  0.9695968  0.9922182  0.0030184

 Al 
  0.0012759  0.2495471  0.2544094

 Al 
  0.2521484  0.9839624  0.2779875

 Al 
  0.2474024  0.1953022  0.0112482

 Al 
  0.5227934  0.0083981  0.0076407

 Al 
  0.5167826  0.2450807  0.2681241

 Al 
  0.7507896  0.9845008  0.2732501

 Al 
  0.7485149  0.2656403  0.9795394

 Al 
  0.0177949  0.5000359  0.9719865

 Al 
  0.9926650  0.7449421  0.2470459

 Al 
  0.2521719  0.5081741  0.2702366

 Al 
  0.2807435  0.7784776  0.0081667

 Al 
  0.9802955  0.0131219  0.4870959

 Al 
  0.9824254  0.2443109  0.7250000

 Al 
  0.2502933  0.0181055  0.7487129

 Al 
  0.2438345  0.2518823  0.5133434

 Al 
  0.9890958  0.4970930  0.4946475

 Al 
  0.9973491  0.7735904  0.7364994

 Al 
  0.2492983  0.4987513  0.7534924

 Al 
  0.2412158  0.7301866  0.5104500

 Al 
  0.4963950  0.5007735  0.0088622

 Al 
  0.5022660  0.7493342  0.2527486

 Al 
  0.7437763  0.5022239  0.2345181

 Al 
  0.7445126  0.7284825  0.9929038

 Al 
  0.5116120  0.0047300  0.5069799

 Al 
  0.4954210  0.2540147  0.7588015

 Al 
  0.7539305  0.9947564  0.7302893

 Al 
  0.7511942  0.2531013  0.4966091

 Al 
  0.5102235  0.5178407  0.5091765

 Al 
  0.5137864  0.7429397  0.7493268

 Al 
  0.7542560  0.5106010  0.7238441

 Al 
  0.7361368  0.7578783  0.4940436

