32 
charge = 0 
 Al 
  0.9689595  0.9916229  0.0013465

 Al 
  0.0053970  0.2498589  0.2535172

 Al 
  0.2518316  0.9843535  0.2801012

 Al 
  0.2466450  0.1971004  0.0105168

 Al 
  0.5270049  0.0089278  0.0059601

 Al 
  0.5130179  0.2438963  0.2709470

 Al 
  0.7502636  0.9854525  0.2749765

 Al 
  0.7506844  0.2671303  0.9798253

 Al 
  0.0180511  0.5008613  0.9725682

 Al 
  0.9920536  0.7456215  0.2455831

 Al 
  0.2524627  0.5085763  0.2721449

 Al 
  0.2774219  0.7754059  0.0089859

 Al 
  0.9813982  0.0125897  0.4839439

 Al 
  0.9819922  0.2446525  0.7233639

 Al 
  0.2500792  0.0188345  0.7486077

 Al 
  0.2451624  0.2518898  0.5148656

 Al 
  0.9872506  0.4965559  0.4958121

 Al 
  0.9955683  0.7740755  0.7354859

 Al 
  0.2502537  0.4968096  0.7517239

 Al 
  0.2404534  0.7288921  0.5118125

 Al 
  0.4939384  0.5011175  0.0085813

 Al 
  0.5032065  0.7500718  0.2502648

 Al 
  0.7452923  0.5031954  0.2348361

 Al 
  0.7454643  0.7311061  0.9957898

 Al 
  0.5116232  0.0016410  0.5058982

 Al 
  0.4966177  0.2525135  0.7617210

 Al 
  0.7511806  0.9952057  0.7317917

 Al 
  0.7496176  0.2540914  0.4974952

 Al 
  0.5104735  0.5164707  0.5083325

 Al 
  0.5132939  0.7398446  0.7478417

 Al 
  0.7562497  0.5135501  0.7231610

 Al 
  0.7370910  0.7580850  0.4921996

