32 
charge = 0 
 Al 
  0.9687466  0.9913866  0.0005755

 Al 
  0.0072249  0.2500792  0.2529627

 Al 
  0.2516744  0.9846097  0.2810715

 Al 
  0.2462910  0.1982229  0.0103386

 Al 
  0.5290035  0.0090948  0.0051693

 Al 
  0.5111628  0.2434199  0.2720695

 Al 
  0.7499035  0.9861108  0.2752908

 Al 
  0.7517289  0.2677652  0.9800604

 Al 
  0.0180375  0.5012462  0.9730744

 Al 
  0.9918766  0.7458913  0.2449025

 Al 
  0.2525803  0.5085912  0.2728095

 Al 
  0.2756930  0.7739295  0.0092409

 Al 
  0.9822323  0.0121368  0.4826877

 Al 
  0.9819427  0.2448592  0.7229159

 Al 
  0.2499740  0.0188085  0.7484110

 Al 
  0.2458851  0.2519219  0.5153557

 Al 
  0.9865205  0.4964420  0.4962576

 Al 
  0.9948183  0.7741399  0.7350502

 Al 
  0.2507685  0.4959581  0.7508799

 Al 
  0.2401676  0.7285951  0.5124783

 Al 
  0.4927528  0.5011670  0.0084179

 Al 
  0.5036335  0.7504220  0.2492141

 Al 
  0.7460782  0.5035122  0.2351406

 Al 
  0.7459594  0.7324600  0.9970385

 Al 
  0.5113484  0.0002537  0.5055059

 Al 
  0.4972316  0.2518675  0.7629239

 Al 
  0.7498032  0.9954804  0.7326778

 Al 
  0.7487204  0.2545654  0.4978553

 Al 
  0.5104463  0.5156007  0.5077855

 Al 
  0.5128719  0.7386738  0.7472551

 Al 
  0.7571717  0.5147876  0.7231251

 Al 
  0.7377531  0.7580046  0.4914583

