32 
charge = 0 
 Al 
  0.9711054  0.9932454  0.0054465

 Al 
  0.9947354  0.2495743  0.2544688

 Al 
  0.2524479  0.9841468  0.2750656

 Al 
  0.2483219  0.1952354  0.0135266

 Al 
  0.5175028  0.0071556  0.0098955

 Al 
  0.5212180  0.2472675  0.2625922

 Al 
  0.7506460  0.9846060  0.2671365

 Al 
  0.7456524  0.2627803  0.9799502

 Al 
  0.0162232  0.4988144  0.9731573

 Al 
  0.9942726  0.7436600  0.2491114

 Al 
  0.2516769  0.5061791  0.2656762

 Al 
  0.2837892  0.7821680  0.0059168

 Al 
  0.9814477  0.0120910  0.4928667

 Al 
  0.9843881  0.2444075  0.7298550

 Al 
  0.2506002  0.0143149  0.7475880

 Al 
  0.2427343  0.2521100  0.5094612

 Al 
  0.9925264  0.4988812  0.4925214

 Al 
  0.0005569  0.7714333  0.7383781

 Al 
  0.2486053  0.5019863  0.7556779

 Al 
  0.2428556  0.7344352  0.5087496

 Al 
  0.4992971  0.4994196  0.0088597

 Al 
  0.5009603  0.7484233  0.2571234

 Al 
  0.7424521  0.4999715  0.2354203

 Al 
  0.7438320  0.7260222  0.9882667

 Al 
  0.5094933  0.0095404  0.5092050

 Al 
  0.4941315  0.2565356  0.7534652

 Al 
  0.7568400  0.9946760  0.7299861

 Al 
  0.7520729  0.2519541  0.4950275

 Al 
  0.5086295  0.5178704  0.5092297

 Al 
  0.5129610  0.7494493  0.7520853

 Al 
  0.7514715  0.5053376  0.7268638

 Al 
  0.7365539  0.7563079  0.4974283

