32 
charge = 0 
 Al 
  0.9707205  0.9930214  0.0049441

 Al 
  0.9961623  0.2495223  0.2546161

 Al 
  0.2524095  0.9840045  0.2756435

 Al 
  0.2481622  0.1949136  0.0129164

 Al 
  0.5184694  0.0074588  0.0094525

 Al 
  0.5204383  0.2467650  0.2639201

 Al 
  0.7507834  0.9844228  0.2688233

 Al 
  0.7462131  0.2634820  0.9797609

 Al 
  0.0167083  0.4990743  0.9726548

 Al 
  0.9938592  0.7439545  0.2486919

 Al 
  0.2517833  0.5067707  0.2668507

 Al 
  0.2833993  0.7815281  0.0065170

 Al 
  0.9808636  0.0125365  0.4915536

 Al 
  0.9838040  0.2442998  0.7285407

 Al 
  0.2505334  0.0154225  0.7479828

 Al 
  0.2428642  0.2520321  0.5104710

 Al 
  0.9917368  0.4983912  0.4929917

 Al 
  0.9998131  0.7720781  0.7379226

 Al 
  0.2486572  0.5012586  0.7552832

 Al 
  0.2424447  0.7332620  0.5090713

 Al 
  0.4987959  0.4998057  0.0089216

 Al 
  0.5012165  0.7485842  0.2561210

 Al 
  0.7426031  0.5005235  0.2350577

 Al 
  0.7438654  0.7263514  0.9892654

 Al 
  0.5101802  0.0085058  0.5086815

 Al 
  0.4943505  0.2559725  0.7547040

 Al 
  0.7563858  0.9946191  0.7297931

 Al 
  0.7520630  0.2521484  0.4953789

 Al 
  0.5091196  0.5181105  0.5093535

 Al 
  0.5133211  0.7478553  0.7514578

 Al 
  0.7520321  0.5065492  0.7260012

 Al 
  0.7362420  0.7567757  0.4966536

