32 
charge = 0 
 Al 
  0.9703678  0.9927961  0.0044255

 Al 
  0.9975892  0.2494926  0.2546718

 Al 
  0.2523551  0.9839216  0.2762574

 Al 
  0.2479778  0.1947861  0.0123645

 Al 
  0.5195473  0.0077471  0.0089822

 Al 
  0.5195498  0.2462737  0.2651787

 Al 
  0.7508626  0.9843238  0.2703208

 Al 
  0.7468096  0.2641342  0.9796285

 Al 
  0.0171118  0.4993367  0.9722935

 Al 
  0.9934793  0.7442429  0.2482550

 Al 
  0.2518910  0.5072744  0.2679236

 Al 
  0.2828499  0.7807868  0.0070566

 Al 
  0.9804651  0.0128583  0.4902641

 Al 
  0.9833102  0.2442441  0.7273687

 Al 
  0.2504678  0.0163779  0.7482946

 Al 
  0.2430548  0.2519714  0.5113905

 Al 
  0.9909670  0.4979555  0.4934644

 Al 
  0.9990929  0.7726214  0.7374969

 Al 
  0.2487649  0.5005433  0.7548401

 Al 
  0.2420647  0.7322261  0.5094191

 Al 
  0.4982167  0.5001411  0.0089476

 Al 
  0.5014913  0.7487686  0.2551458

 Al 
  0.7428345  0.5010482  0.2347891

 Al 
  0.7439681  0.7267994  0.9902765

 Al 
  0.5107445  0.0074613  0.5081741

 Al 
  0.4946018  0.2554156  0.7559019

 Al 
  0.7558264  0.9946055  0.7297498

 Al 
  0.7519529  0.2523749  0.4957316

 Al 
  0.5095280  0.5182120  0.5094042

 Al 
  0.5135822  0.7463566  0.7508403

 Al 
  0.7526199  0.5077273  0.7252488

 Al 
  0.7360539  0.7571766  0.4958950

