32 
charge = 0 
 Al 
  0.9733194  0.9941773  0.0075442

 Al 
  0.9881454  0.2499691  0.2526818

 Al 
  0.2524380  0.9855688  0.2728120

 Al 
  0.2487550  0.1992339  0.0168766

 Al 
  0.5145426  0.0056829  0.0115762

 Al 
  0.5233392  0.2496436  0.2556705

 Al 
  0.7493862  0.9862692  0.2574340

 Al 
  0.7434694  0.2588213  0.9815244

 Al 
  0.0129659  0.4976412  0.9772239

 Al 
  0.9965051  0.7423407  0.2508069

 Al 
  0.2512895  0.5024058  0.2589971

 Al 
  0.2834662  0.7836567  0.0025085

 Al 
  0.9862754  0.0085615  0.4989642

 Al 
  0.9882704  0.2455485  0.7375093

 Al 
  0.2509331  0.0076407  0.7447861

 Al 
  0.2428159  0.2526892  0.5037944

 Al 
  0.9963071  0.5016831  0.4905896

 Al 
  0.0041990  0.7671242  0.7409621

 Al 
  0.2490793  0.5055195  0.7568623

 Al 
  0.2452082  0.7414348  0.5074910

 Al 
  0.5005829  0.4970930  0.0080404

 Al 
  0.5000149  0.7480026  0.2619982

 Al 
  0.7428098  0.4972922  0.2382469

 Al 
  0.7446352  0.7260210  0.9839847

 Al 
  0.5050344  0.0140995  0.5116158

 Al 
  0.4934644  0.2591901  0.7473145

 Al 
  0.7576419  0.9954680  0.7327756

 Al 
  0.7510099  0.2514096  0.4935709

 Al 
  0.5053760  0.5151119  0.5078907

 Al 
  0.5101195  0.7578115  0.7548389

 Al 
  0.7491374  0.4993676  0.7320380

 Al 
  0.7394646  0.7535196  0.5010767

