32 
charge = 0 
 Al 
  0.9727551  0.9939892  0.0071086

 Al 
  0.9896193  0.2498738  0.2532300

 Al 
  0.2524640  0.9851455  0.2732637

 Al 
  0.2486993  0.1979828  0.0160772

 Al 
  0.5149955  0.0060146  0.0112519

 Al 
  0.5230805  0.2491164  0.2573227

 Al 
  0.7497451  0.9858064  0.2598238

 Al 
  0.7439025  0.2598176  0.9810777

 Al 
  0.0138347  0.4979023  0.9760742

 Al 
  0.9959680  0.7426167  0.2504641

 Al 
  0.2513564  0.5033872  0.2606641

 Al 
  0.2838436  0.7835466  0.0033427

 Al 
  0.9849228  0.0095416  0.4976140

 Al 
  0.9872321  0.2452057  0.7355948

 Al 
  0.2508564  0.0093151  0.7455373

 Al 
  0.2427120  0.2525259  0.5051879

 Al 
  0.9954520  0.5009950  0.4909695

 Al 
  0.0033674  0.7682763  0.7403049

 Al 
  0.2488751  0.5047065  0.7566866

 Al 
  0.2446117  0.7396639  0.5077509

 Al 
  0.5004393  0.4976783  0.0083028

 Al 
  0.5001918  0.7480471  0.2608819

 Al 
  0.7425821  0.4978838  0.2374598

 Al 
  0.7443159  0.7258106  0.9848795

 Al 
  0.5061866  0.0131206  0.5110985

 Al 
  0.4935746  0.2585936  0.7487414

 Al 
  0.7576382  0.9952156  0.7318907

 Al 
  0.7513824  0.2514925  0.4938567

 Al 
  0.5062373  0.5159472  0.5082818

 Al 
  0.5109066  0.7558215  0.7542659

 Al 
  0.7496312  0.5007487  0.7307349

 Al 
  0.7386181  0.7542114  0.5002611

