32 
charge = 0 
 Al 
  0.9736164  0.9942651  0.0077496

 Al 
  0.9874177  0.2500136  0.2523811

 Al 
  0.2524207  0.9858002  0.2725991

 Al 
  0.2487748  0.1999282  0.0172751

 Al 
  0.5143619  0.0055208  0.0117247

 Al 
  0.5234184  0.2498998  0.2548364

 Al 
  0.7491956  0.9865118  0.2562200

 Al 
  0.7432664  0.2583040  0.9817645

 Al 
  0.0125080  0.4975137  0.9778414

 Al 
  0.9967761  0.7422108  0.2509678

 Al 
  0.2512611  0.5018947  0.2581382

 Al 
  0.2832125  0.7836605  0.0020865

 Al 
  0.9869932  0.0080429  0.4996238

 Al 
  0.9888199  0.2457341  0.7384919

 Al 
  0.2509715  0.0067856  0.7443926

 Al 
  0.2428828  0.2527783  0.5030828

 Al 
  0.9967304  0.5020321  0.4904188

 Al 
  0.0046112  0.7665140  0.7413061

 Al 
  0.2492018  0.5059254  0.7569291

 Al 
  0.2455188  0.7423482  0.5073647

 Al 
  0.5006225  0.4967935  0.0078919

 Al 
  0.4999356  0.7479927  0.2625501

 Al 
  0.7429533  0.4970076  0.2386664

 Al 
  0.7448233  0.7261695  0.9835615

 Al 
  0.5044391  0.0145698  0.5118596

 Al 
  0.4934149  0.2594847  0.7466017

 Al 
  0.7576073  0.9956104  0.7332657

 Al 
  0.7508019  0.2513737  0.4934422

 Al 
  0.5049255  0.5146552  0.5076803

 Al 
  0.5097013  0.7588152  0.7551062

 Al 
  0.7488986  0.4986783  0.7327063

 Al 
  0.7399213  0.7531682  0.5014764

