32 
charge = 0 
 Al 
  0.9745495  0.9944953  0.0083053

 Al 
  0.9853176  0.2501225  0.2514022

 Al 
  0.2523538  0.9865514  0.2720113

 Al 
  0.2488008  0.2022412  0.0184323

 Al 
  0.5140005  0.0050530  0.0121058

 Al 
  0.5234481  0.2506163  0.2523588

 Al 
  0.7485941  0.9872605  0.2526038

 Al 
  0.7427306  0.2567064  0.9825306

 Al 
  0.0110725  0.4971425  0.9798203

 Al 
  0.9975781  0.7418742  0.2513947

 Al 
  0.2512029  0.5003193  0.2555133

 Al 
  0.2822088  0.7834625  0.0008415

 Al 
  0.9892518  0.0064168  0.5014950

 Al 
  0.9905512  0.2463306  0.7414658

 Al 
  0.2510792  0.0042213  0.7431761

 Al 
  0.2431315  0.2530667  0.5009455

 Al 
  0.9979469  0.5030630  0.4899931

 Al 
  0.0057930  0.7645970  0.7423840

 Al 
  0.2496312  0.5071123  0.7570516

 Al 
  0.2464890  0.7451314  0.5070009

 Al 
  0.5006225  0.4958962  0.0073870

 Al 
  0.4997364  0.7480137  0.2641466

 Al 
  0.7434879  0.4962329  0.2399968

 Al 
  0.7454841  0.7267734  0.9824167

 Al 
  0.5026335  0.0158730  0.5125093

 Al 
  0.4932974  0.2603287  0.7445213

 Al 
  0.7573746  0.9960868  0.7348881

 Al 
  0.7501188  0.2512809  0.4931278

 Al 
  0.5035209  0.5131751  0.5070195

 Al 
  0.5083882  0.7617766  0.7558054

 Al 
  0.7482191  0.4966573  0.7347322

 Al 
  0.7413841  0.7521224  0.5026187

