32 
charge = 0 
 Al 
  0.9769071  0.9947861  0.0091332

 Al 
  0.9812819  0.2501510  0.2489827

 Al 
  0.2521509  0.9884375  0.2709222

 Al 
  0.2487030  0.2083511  0.0205534

 Al 
  0.5139597  0.0041000  0.0125377

 Al 
  0.5224160  0.2518192  0.2473034

 Al 
  0.7472464  0.9888743  0.2453059

 Al 
  0.7419744  0.2530890  0.9843745

 Al 
  0.0077372  0.4964086  0.9846678

 Al 
  0.9992253  0.7414880  0.2519813

 Al 
  0.2512054  0.4968232  0.2496745

 Al 
  0.2787956  0.7819551  0.9984271

 Al 
  0.9944149  0.0027288  0.5048921

 Al 
  0.9946525  0.2477439  0.7478466

 Al 
  0.2512301  0.9989877  0.7405438

 Al 
  0.2438493  0.2537931  0.4964432

 Al 
  0.0002710  0.5050913  0.4896045

 Al 
  0.0079872  0.7600837  0.7449854

 Al 
  0.2508663  0.5094711  0.7569403

 Al 
  0.2487798  0.7511584  0.5062398

 Al 
  0.5000582  0.4941080  0.0059849

 Al 
  0.4995124  0.7483330  0.2671180

 Al 
  0.7451215  0.4951005  0.2431377

 Al 
  0.7473417  0.7288402  0.9806965

 Al 
  0.4988181  0.0180263  0.5133360

 Al 
  0.4931489  0.2618992  0.7404658

 Al 
  0.7562918  0.9973887  0.7390315

 Al 
  0.7484914  0.2510581  0.4928865

 Al 
  0.5003205  0.5095292  0.5054923

 Al 
  0.5053760  0.7677392  0.7566853

 Al 
  0.7469544  0.4926155  0.7390451

 Al 
  0.7449099  0.7500210  0.5047621

