32 
charge = 0 
 Al 
  0.9772610  0.9947985  0.0091926

 Al 
  0.9808252  0.2501238  0.2486498

 Al 
  0.2521187  0.9887048  0.2707873

 Al 
  0.2486746  0.2092495  0.0207675

 Al 
  0.5140080  0.0039763  0.0125439

 Al 
  0.5221623  0.2519318  0.2467031

 Al 
  0.7470781  0.9890711  0.2444594

 Al 
  0.7419249  0.2526137  0.9846270

 Al 
  0.0072917  0.4963207  0.9853448

 Al 
  0.9994258  0.7414831  0.2520160

 Al 
  0.2512178  0.4963764  0.2489122

 Al 
  0.2782263  0.7816469  0.9981635

 Al 
  0.9950819  0.0022536  0.5052535

 Al 
  0.9952119  0.2479308  0.7486449

 Al 
  0.2512363  0.9983788  0.7402270

 Al 
  0.2439545  0.2538958  0.4958876

 Al 
  0.0005334  0.5053190  0.4896181

 Al 
  0.0082211  0.7594711  0.7453517

 Al 
  0.2510544  0.5097483  0.7568895

 Al 
  0.2490966  0.7519108  0.5061383

 Al 
  0.4999307  0.4939087  0.0057708

 Al 
  0.4995050  0.7484060  0.2674323

 Al 
  0.7453752  0.4950250  0.2435610

 Al 
  0.7476189  0.7291842  0.9805653

 Al 
  0.4983553  0.0182231  0.5133632

 Al 
  0.4931377  0.2620687  0.7400079

 Al 
  0.7561012  0.9975855  0.7396181

 Al 
  0.7482810  0.2510185  0.4929088

 Al 
  0.4998985  0.5090255  0.5052893

 Al 
  0.5049837  0.7684397  0.7567237

 Al 
  0.7468158  0.4921365  0.7395785

 Al 
  0.7453913  0.7497772  0.5050022

