32 
charge = 0 
 Al 
  0.9791409  0.9947614  0.0092817

 Al 
  0.9789602  0.2498837  0.2470818

 Al 
  0.2519628  0.9900116  0.2701166

 Al 
  0.2485001  0.2137456  0.0214952

 Al 
  0.5142852  0.0033538  0.0123645

 Al 
  0.5205732  0.2523167  0.2441599

 Al 
  0.7463467  0.9898990  0.2409844

 Al 
  0.7418692  0.2504146  0.9858200

 Al 
  0.0052188  0.4959371  0.9886379

 Al 
  0.0003131  0.7416316  0.2520259

 Al 
  0.2513106  0.4943641  0.2453690

 Al 
  0.2751522  0.7798512  0.9971685

 Al 
  0.9980880  0.0001002  0.5066457

 Al 
  0.9978949  0.2487835  0.7522103

 Al 
  0.2511942  0.9958950  0.7389449

 Al 
  0.2444644  0.2544094  0.4934273

 Al 
  0.0016237  0.5062249  0.4899188

 Al 
  0.0090936  0.7565504  0.7471647

 Al 
  0.2519999  0.5109141  0.7565591

 Al 
  0.2506312  0.7552287  0.5056321

 Al 
  0.4991857  0.4931315  0.0046619

 Al 
  0.4995384  0.7488553  0.2686117

 Al 
  0.7466561  0.4949421  0.2455522

 Al 
  0.7489926  0.7310282  0.9802844

 Al 
  0.4963702  0.0188221  0.5131689

 Al 
  0.4930796  0.2627160  0.7381726

 Al 
  0.7550926  0.9985855  0.7424632

 Al 
  0.7473553  0.2507846  0.4932058

 Al 
  0.4979345  0.5066160  0.5043339

 Al 
  0.5032127  0.7713814  0.7566284

 Al 
  0.7462675  0.4900871  0.7419212

 Al 
  0.7476882  0.7487736  0.5059861

