32 
charge = 0 
 Al 
  0.9808636  0.9946240  0.0091109

 Al 
  0.9779095  0.2495718  0.2459210

 Al 
  0.2518378  0.9910586  0.2694928

 Al 
  0.2483206  0.2174261  0.0216833

 Al 
  0.5144287  0.0028155  0.0119610

 Al 
  0.5189273  0.2524541  0.2425895

 Al 
  0.7458913  0.9903792  0.2390030

 Al 
  0.7420338  0.2488206  0.9867247

 Al 
  0.0037065  0.4956685  0.9912393

 Al 
  0.0009257  0.7419583  0.2518576

 Al 
  0.2513984  0.4929682  0.2427565

 Al 
  0.2724073  0.7781261  0.9967316

 Al 
  0.0001423  0.9985867  0.5073585

 Al 
  0.9999839  0.2493862  0.7546569

 Al 
  0.2510631  0.9945324  0.7382976

 Al 
  0.2448406  0.2548314  0.4917541

 Al 
  0.0022994  0.5066940  0.4904324

 Al 
  0.0094760  0.7543203  0.7486251

 Al 
  0.2527585  0.5116232  0.7562150

 Al 
  0.2518304  0.7574155  0.5052002

 Al 
  0.4984827  0.4927603  0.0037139

 Al 
  0.4996386  0.7493206  0.2691265

 Al 
  0.7476919  0.4951983  0.2470459

 Al 
  0.7500792  0.7326716  0.9804713

 Al 
  0.4951327  0.0188864  0.5126182

 Al 
  0.4930065  0.2630093  0.7371949

 Al 
  0.7542424  0.9994146  0.7446661

 Al 
  0.7467576  0.2505532  0.4936525

 Al 
  0.4964965  0.5047832  0.5035976

 Al 
  0.5020024  0.7731672  0.7562460

 Al 
  0.7459903  0.4887815  0.7434731

 Al 
  0.7494332  0.7481944  0.5065826

