32 
charge = 0 
 Al 
  0.9787461  0.9947812  0.0092904

 Al 
  0.9792807  0.2499455  0.2473838

 Al 
  0.2519937  0.9897517  0.2702564

 Al 
  0.2485397  0.2128434  0.0213937

 Al 
  0.5142320  0.0034800  0.0124288

 Al 
  0.5209334  0.2522610  0.2446117

 Al 
  0.7464779  0.9897542  0.2415846

 Al 
  0.7418568  0.2508316  0.9855898

 Al 
  0.0056148  0.4960076  0.9879895

 Al 
  0.0001485  0.7415784  0.2520445

 Al 
  0.2512895  0.4947404  0.2460460

 Al 
  0.2757958  0.7802423  0.9973256

 Al 
  0.9975298  0.0005037  0.5064168

 Al 
  0.9973702  0.2486226  0.7515494

 Al 
  0.2512128  0.9963195  0.7391602

 Al 
  0.2443654  0.2543067  0.4938815

 Al 
  0.0014319  0.5060740  0.4898285

 Al 
  0.0089562  0.7571185  0.7468034

 Al 
  0.2518106  0.5107074  0.7566346

 Al 
  0.2503292  0.7546223  0.5057349

 Al 
  0.4993478  0.4932590  0.0048884

 Al 
  0.4995235  0.7487538  0.2684261

 Al 
  0.7463999  0.4949210  0.2451686

 Al 
  0.7487191  0.7306420  0.9802931

 Al 
  0.4967254  0.0187503  0.5132518

 Al 
  0.4930919  0.2626120  0.7384820

 Al 
  0.7553005  0.9983825  0.7419051

 Al 
  0.7475236  0.2508366  0.4931229

 Al 
  0.4983107  0.5070850  0.5045196

 Al 
  0.5035419  0.7708628  0.7566828

 Al 
  0.7463591  0.4904559  0.7414918

 Al 
  0.7472415  0.7489481  0.5058141

