32 
charge = 0 
 Al 
  0.9818375  0.9945238  0.0089451

 Al 
  0.9775098  0.2493775  0.2453616

 Al 
  0.2517734  0.9916031  0.2691179

 Al 
  0.2482167  0.2193419  0.0216474

 Al 
  0.5144374  0.0025160  0.0116640

 Al 
  0.5179682  0.2524788  0.2419249

 Al 
  0.7457044  0.9905636  0.2382370

 Al 
  0.7421811  0.2480570  0.9871764

 Al 
  0.0029763  0.4955386  0.9925697

 Al 
  0.0012165  0.7421910  0.2517177

 Al 
  0.2514405  0.4923209  0.2414794

 Al 
  0.2709123  0.7771583  0.9966239

 Al 
  0.0010804  0.9978726  0.5076122

 Al 
  0.0010519  0.2496683  0.7557893

 Al 
  0.2509579  0.9940411  0.7381058

 Al 
  0.2450139  0.2550530  0.4909819

 Al 
  0.0025964  0.5068511  0.4907826

 Al 
  0.0095713  0.7532065  0.7493787

 Al 
  0.2531397  0.5119153  0.7560183

 Al 
  0.2524343  0.7583857  0.5049651

 Al 
  0.4981016  0.4926526  0.0032078

 Al 
  0.4997104  0.7495904  0.2692552

 Al 
  0.7482167  0.4954272  0.2477823

 Al 
  0.7506274  0.7335664  0.9806953

 Al 
  0.4946117  0.0187949  0.5122086

 Al 
  0.4929508  0.2630810  0.7368509

 Al 
  0.7538030  0.9998453  0.7457663

 Al 
  0.7465014  0.2504183  0.4939421

 Al 
  0.4958010  0.5038760  0.5032189

 Al 
  0.5014554  0.7739048  0.7559601

 Al 
  0.7459000  0.4882122  0.7441723

 Al 
  0.7503007  0.7479642  0.5068388

