32 
charge = 0 
 Al 
  0.9854376  0.9940906  0.0080887

 Al 
  0.9767635  0.2486053  0.2437194

 Al 
  0.2515445  0.9934211  0.2675721

 Al 
  0.2478355  0.2256609  0.0209655

 Al 
  0.5140426  0.0014232  0.0103299

 Al 
  0.5144535  0.2524058  0.2403161

 Al 
  0.7452997  0.9909299  0.2367408

 Al 
  0.7428828  0.2458109  0.9886293

 Al 
  0.0007722  0.4951389  0.9968900

 Al 
  0.0021039  0.7432107  0.2510680

 Al 
  0.2515395  0.4905203  0.2375773

 Al 
  0.2657455  0.7737055  0.9967526

 Al 
  0.0036347  0.9958084  0.5080429

 Al 
  0.0045480  0.2504752  0.7590008

 Al 
  0.2504319  0.9933134  0.7381169

 Al 
  0.2454643  0.2557844  0.4888025

 Al 
  0.0034144  0.5070157  0.4922640

 Al 
  0.0094921  0.7497055  0.7518279

 Al 
  0.2543216  0.5125736  0.7553079

 Al 
  0.2543500  0.7608955  0.5041149

 Al 
  0.4968417  0.4926501  0.0014851

 Al 
  0.5000210  0.7505755  0.2691290

 Al 
  0.7498416  0.4965249  0.2500681

 Al 
  0.7523241  0.7366455  0.9819192

 Al 
  0.4934013  0.0180288  0.5103633

 Al 
  0.4926625  0.2629746  0.7363670

 Al 
  0.7524058  0.0012673  0.7491820

 Al 
  0.7458802  0.2499146  0.4950993

 Al 
  0.4937305  0.5010977  0.5019467

 Al 
  0.5000037  0.7755817  0.7547139

 Al 
  0.7458146  0.4867717  0.7460757

 Al 
  0.7529912  0.7474754  0.5075244

