32 
charge = 0 
 Al 
  0.9885934  0.9936934  0.0071803

 Al 
  0.9766484  0.2478924  0.2426464

 Al 
  0.2513452  0.9948802  0.2660326

 Al 
  0.2475199  0.2305517  0.0199309

 Al 
  0.5132778  0.0004727  0.0089996

 Al 
  0.5114833  0.2522437  0.2395216

 Al 
  0.7451735  0.9910301  0.2363942

 Al 
  0.7435820  0.2443085  0.9897542

 Al 
  0.9992042  0.4948468  0.0001931

 Al 
  0.0027548  0.7441983  0.2504344

 Al 
  0.2515643  0.4894411  0.2348188

 Al 
  0.2615811  0.7708208  0.9972439

 Al 
  0.0051643  0.9944545  0.5080961

 Al 
  0.0072694  0.2509962  0.7610712

 Al 
  0.2498589  0.9934929  0.7386986

 Al 
  0.2456821  0.2563363  0.4873991

 Al 
  0.0039652  0.5068474  0.4936674

 Al 
  0.0091146  0.7471227  0.7536916

 Al 
  0.2551594  0.5128323  0.7547077

 Al 
  0.2557646  0.7622581  0.5033773

 Al 
  0.4959309  0.4929484  0.0000953

 Al 
  0.5003131  0.7513848  0.2685733

 Al 
  0.7509752  0.4976288  0.2517276

 Al 
  0.7535233  0.7391119  0.9832632

 Al 
  0.4928877  0.0171031  0.5085355

 Al 
  0.4923271  0.2625773  0.7365229

 Al 
  0.7514009  0.0023662  0.7516286

 Al 
  0.7455980  0.2494617  0.4961264

 Al 
  0.4923085  0.4991424  0.5008960

 Al 
  0.4991745  0.7762487  0.7535444

 Al 
  0.7459210  0.4860032  0.7472712

 Al 
  0.7549304  0.7473071  0.5079551

