32 
charge = 0 
 Al 
  0.9861628  0.9939991  0.0078895

 Al 
  0.9767054  0.2484444  0.2434483

 Al 
  0.2514987  0.9937639  0.2672318

 Al 
  0.2477612  0.2268266  0.0207552

 Al 
  0.5138966  0.0012041  0.0100329

 Al 
  0.5137617  0.2523736  0.2400970

 Al 
  0.7452564  0.9909646  0.2366046

 Al 
  0.7430399  0.2454359  0.9888954

 Al 
  0.0003911  0.4950683  0.9976796

 Al 
  0.0022610  0.7434323  0.2509257

 Al 
  0.2515494  0.4902406  0.2369016

 Al 
  0.2647629  0.7730335  0.9968430

 Al 
  0.0040295  0.9954693  0.5080726

 Al 
  0.0051940  0.2506064  0.7595206

 Al 
  0.2503069  0.9933060  0.7382159

 Al 
  0.2455262  0.2559168  0.4884498

 Al 
  0.0035493  0.5069959  0.4925821

 Al 
  0.0094228  0.7490817  0.7522746

 Al 
  0.2545270  0.5126516  0.7551681

 Al 
  0.2546916  0.7612606  0.5039453

 Al 
  0.4966177  0.4926996  0.0011584

 Al 
  0.5000879  0.7507661  0.2690275

 Al 
  0.7501225  0.4967724  0.2504703

 Al 
  0.7526187  0.7372284  0.9822125

 Al 
  0.4932503  0.0178296  0.5099550

 Al 
  0.4925907  0.2629028  0.7363682

 Al 
  0.7521595  0.0015284  0.7497797

 Al 
  0.7457997  0.2498119  0.4953356

 Al 
  0.4933790  0.5006175  0.5017029

 Al 
  0.4997859  0.7757834  0.7544478

 Al 
  0.7458282  0.4865650  0.7463777

 Al 
  0.7534627  0.7474222  0.5076333

