32 
charge = 0 
 Al 
  0.9841047  0.9942565  0.0084377

 Al 
  0.9769380  0.2488973  0.2442627

 Al 
  0.2516286  0.9927739  0.2681736

 Al 
  0.2479753  0.2234370  0.0212972

 Al 
  0.5142592  0.0018266  0.0108559

 Al 
  0.5157430  0.2524528  0.2407950

 Al 
  0.7454074  0.9908371  0.2371095

 Al 
  0.7426043  0.2465583  0.9881206

 Al 
  0.0015185  0.4952762  0.9953777

 Al 
  0.0018007  0.7428135  0.2513242

 Al 
  0.2515135  0.4910982  0.2389028

 Al 
  0.2675981  0.7749604  0.9966326

 Al 
  0.0028192  0.9964903  0.5079489

 Al 
  0.0033179  0.2502104  0.7579501

 Al 
  0.2506472  0.9934298  0.7380080

 Al 
  0.2453282  0.2555282  0.4895141

 Al 
  0.0031471  0.5070133  0.4916922

 Al 
  0.0095812  0.7509133  0.7509715

 Al 
  0.2539194  0.5123892  0.7555666

 Al 
  0.2536879  0.7601208  0.5044268

 Al 
  0.4972798  0.4925944  0.0021014

 Al 
  0.4999022  0.7502166  0.2692589

 Al 
  0.7492896  0.4960881  0.2492847

 Al 
  0.7517462  0.7355428  0.9814130

 Al 
  0.4937478  0.0183667  0.5110886

 Al 
  0.4927825  0.2630699  0.7364363

 Al 
  0.7528860  0.0007673  0.7480149

 Al 
  0.7460621  0.2501027  0.4946636

 Al 
  0.4944248  0.5020395  0.5024033

 Al 
  0.5004591  0.7751089  0.7551965

 Al 
  0.7458121  0.4872123  0.7454643

 Al 
  0.7520704  0.7476078  0.5073041

