32 
charge = 0 
 Al 
  0.9869301  0.9939025  0.0076716

 Al 
  0.9766658  0.2482711  0.2431798

 Al 
  0.2514504  0.9941203  0.2668643

 Al 
  0.2476833  0.2280296  0.0205138

 Al 
  0.5137221  0.0009727  0.0097124

 Al 
  0.5130352  0.2523353  0.2398916

 Al 
  0.7452205  0.9909930  0.2365007

 Al 
  0.7432095  0.2450609  0.9891713

 Al 
  0.0000025  0.4949953  0.9984926

 Al 
  0.0024207  0.7436711  0.2507722

 Al 
  0.2515569  0.4899658  0.2362160

 Al 
  0.2637419  0.7723281  0.9969544

 Al 
  0.0044169  0.9951302  0.5080912

 Al 
  0.0058623  0.2507363  0.7600403

 Al 
  0.2501708  0.9933320  0.7383446

 Al 
  0.2455831  0.2560529  0.4880984

 Al 
  0.0036855  0.5069613  0.4929211

 Al 
  0.0093374  0.7484444  0.7527338

 Al 
  0.2547349  0.5127221  0.7550220

 Al 
  0.2550406  0.7616096  0.5037659

 Al 
  0.4963913  0.4927664  0.0008180

 Al 
  0.5001584  0.7509653  0.2689025

 Al 
  0.7504047  0.4970385  0.2508811

 Al 
  0.7529169  0.7378335  0.9825330

 Al 
  0.4931142  0.0176080  0.5095144

 Al 
  0.4925115  0.2628137  0.7363942

 Al 
  0.7519108  0.0017994  0.7503861

 Al 
  0.7457255  0.2497017  0.4955869

 Al 
  0.4930251  0.5001312  0.5014467

 Al 
  0.4995755  0.7759628  0.7541644

 Al 
  0.7458505  0.4863682  0.7466759

 Al 
  0.7539441  0.7473751  0.5077410

