32 
charge = 0 
 Al 
  0.9904336  0.9934669  0.0066160

 Al 
  0.9767153  0.2474655  0.2421291

 Al 
  0.2512252  0.9957019  0.2650686

 Al 
  0.2473454  0.2332261  0.0192045

 Al 
  0.5126986  0.9999196  0.0081902

 Al 
  0.5097990  0.2521311  0.2392060

 Al 
  0.7451624  0.9910400  0.2364227

 Al 
  0.7439991  0.2435597  0.9903829

 Al 
  0.9983763  0.4946933  0.0019900

 Al 
  0.0031075  0.7447923  0.2500582

 Al 
  0.2515569  0.4889548  0.2333919

 Al 
  0.2592656  0.7691773  0.9976202

 Al 
  0.0058747  0.9937850  0.5080578

 Al 
  0.0087694  0.2512524  0.7620897

 Al 
  0.2494963  0.9937998  0.7391899

 Al 
  0.2457552  0.2566296  0.4867086

 Al 
  0.0042585  0.5066692  0.4945040

 Al 
  0.0088238  0.7457415  0.7546990

 Al 
  0.2555950  0.5129016  0.7543649

 Al 
  0.2565182  0.7628335  0.5029479

 Al 
  0.4954693  0.4931996  0.9993156

 Al 
  0.5004851  0.7518316  0.2681365

 Al 
  0.7515494  0.4982946  0.2526063

 Al 
  0.7541372  0.7404782  0.9841134

 Al 
  0.4927268  0.0165153  0.5074254

 Al 
  0.4921056  0.2622618  0.7367581

 Al 
  0.7508824  0.0029689  0.7529033

 Al 
  0.7455039  0.2491919  0.4967155

 Al 
  0.4915821  0.4981350  0.5002896

 Al 
  0.4988045  0.7764306  0.7528612

 Al 
  0.7460262  0.4856789  0.7478627

 Al 
  0.7559502  0.7472724  0.5081692

