32 
charge = 0 
 Al 
  0.0002265  0.9924125  0.0033934

 Al 
  0.9780927  0.2450584  0.2403012

 Al 
  0.2505309  0.9999629  0.2592347

 Al 
  0.2465621  0.2460881  0.0142109

 Al 
  0.5084278  0.9970026  0.0037065

 Al 
  0.5013254  0.2514170  0.2385080

 Al 
  0.7455633  0.9908210  0.2381231

 Al 
  0.7461933  0.2405648  0.9936488

 Al 
  0.9944755  0.4940374  0.0105589

 Al 
  0.0048042  0.7480805  0.2481313

 Al 
  0.2513316  0.4876417  0.2273934

 Al 
  0.2479580  0.7605960  0.0002091

 Al 
  0.0083189  0.9911749  0.5074501

 Al 
  0.0160821  0.2523105  0.7660957

 Al 
  0.2473925  0.9968331  0.7429694

 Al 
  0.2456821  0.2579093  0.4839723

 Al 
  0.0057732  0.5051000  0.4990137

 Al 
  0.0068115  0.7393198  0.7594500

 Al 
  0.2574934  0.5126665  0.7525816

 Al 
  0.2599352  0.7642505  0.5006472

 Al 
  0.4937355  0.4951648  0.9953814

 Al 
  0.5013910  0.7539045  0.2648520

 Al 
  0.7538513  0.5019170  0.2566185

 Al 
  0.7566791  0.7471722  0.9891874

 Al 
  0.4929013  0.0131714  0.5012301

 Al 
  0.4906836  0.2598547  0.7390773

 Al 
  0.7487154  0.0058995  0.7585008

 Al 
  0.7455869  0.2476647  0.4997005

 Al 
  0.4884535  0.4938109  0.4969878

 Al 
  0.4976288  0.7757797  0.7493627

 Al 
  0.7468851  0.4848436  0.7504443

 Al 
  0.7605094  0.7475731  0.5090528

