32 
charge = 0 
 Al 
  0.9945881  0.9929818  0.0052869

 Al 
  0.9771162  0.2464754  0.2411787

 Al 
  0.2509443  0.9975199  0.2627345

 Al 
  0.2469803  0.2389213  0.0173061

 Al 
  0.5111108  0.9986758  0.0063116

 Al 
  0.5061111  0.2518489  0.2387493

 Al 
  0.7452502  0.9909868  0.2368856

 Al 
  0.7449433  0.2421130  0.9917677

 Al 
  0.9966437  0.4943839  0.0058017

 Al 
  0.0038550  0.7461648  0.2492179

 Al 
  0.2514975  0.4881541  0.2305480

 Al 
  0.2542820  0.7655252  0.9986226

 Al 
  0.0071420  0.9925078  0.5078647

 Al 
  0.0119907  0.2517487  0.7640377

 Al 
  0.2486288  0.9948530  0.7405871

 Al 
  0.2458133  0.2572286  0.4853844

 Al 
  0.0048946  0.5061160  0.4964098

 Al 
  0.0080454  0.7428593  0.7568227

 Al 
  0.2564749  0.5129065  0.7536038

 Al 
  0.2580763  0.7637233  0.5019764

 Al 
  0.4945894  0.4939174  0.9976127

 Al 
  0.5008725  0.7527721  0.2669237

 Al 
  0.7526657  0.4998230  0.2544243

 Al 
  0.7553512  0.7434186  0.9861603

 Al 
  0.4926217  0.0151255  0.5048463

 Al 
  0.4915487  0.2613781  0.7375551

 Al 
  0.7498540  0.0042597  0.7554898

 Al 
  0.7454322  0.2485632  0.4980125

 Al 
  0.4901255  0.4961165  0.4989109

 Al 
  0.4981696  0.7764455  0.7513428

 Al 
  0.7463418  0.4851703  0.7490397

 Al 
  0.7580380  0.7473133  0.5085850

