32 
charge = 0 
 Al 
  0.0045456  0.9920895  0.0018774

 Al 
  0.9791644  0.2438889  0.2399597

 Al 
  0.2501832  0.0018489  0.2562670

 Al 
  0.2463207  0.2511980  0.0113967

 Al 
  0.5059576  0.9957403  0.0016992

 Al 
  0.4978306  0.2510383  0.2385365

 Al 
  0.7459297  0.9906725  0.2394510

 Al 
  0.7470992  0.2396738  0.9951562

 Al 
  0.9928815  0.4938345  0.0139077

 Al 
  0.0054973  0.7495941  0.2473887

 Al 
  0.2511361  0.4877271  0.2255594

 Al 
  0.2434558  0.7567559  0.0015482

 Al 
  0.0088733  0.9904423  0.5070405

 Al 
  0.0190003  0.2526942  0.7672553

 Al 
  0.2464358  0.9986709  0.7451252

 Al 
  0.2454049  0.2583040  0.4831592

 Al 
  0.0065083  0.5041273  0.5010198

 Al 
  0.0057547  0.7368410  0.7612853

 Al 
  0.2581456  0.5123187  0.7517920

 Al 
  0.2611591  0.7641899  0.4996114

 Al 
  0.4933803  0.4963480  0.9937206

 Al 
  0.5017771  0.7546421  0.2629078

 Al 
  0.7545060  0.5035196  0.2581221

 Al 
  0.7574501  0.7498960  0.9917170

 Al 
  0.4934026  0.0116479  0.4983751

 Al 
  0.4899374  0.2584278  0.7405475

 Al 
  0.7480385  0.0070751  0.7604537

 Al 
  0.7458975  0.2469247  0.5009344

 Al 
  0.4873818  0.4923494  0.4954507

 Al 
  0.4974222  0.7747624  0.7479209

 Al 
  0.7473727  0.4848411  0.7514504

 Al 
  0.7621492  0.7479159  0.5093646

