32 
charge = 0 
 Al 
  0.0013415  0.9923172  0.0030085

 Al 
  0.9783402  0.2447651  0.2401837

 Al 
  0.2504443  0.0004468  0.2584946

 Al 
  0.2464915  0.2474382  0.0135253

 Al 
  0.5078263  0.9966747  0.0031892

 Al 
  0.5004084  0.2513242  0.2384993

 Al 
  0.7456475  0.9907826  0.2384350

 Al 
  0.7464321  0.2403099  0.9940300

 Al 
  0.9940609  0.4939793  0.0114487

 Al 
  0.0049849  0.7484667  0.2479296

 Al 
  0.2512871  0.4876207  0.2268675

 Al 
  0.2467662  0.7596134  0.0005458

 Al 
  0.0084897  0.9909608  0.5073524

 Al 
  0.0168556  0.2524120  0.7664311

 Al 
  0.2471449  0.9972823  0.7434991

 Al 
  0.2456265  0.2580231  0.4837397

 Al 
  0.0059564  0.5048661  0.4995310

 Al 
  0.0065479  0.7386615  0.7599389

 Al 
  0.2576729  0.5125897  0.7523786

 Al 
  0.2602693  0.7642740  0.5003824

 Al 
  0.4936167  0.4954495  0.9949495

 Al 
  0.5014925  0.7541062  0.2643830

 Al 
  0.7540419  0.5023316  0.2570207

 Al 
  0.7568994  0.7478875  0.9898210

 Al 
  0.4930065  0.0127791  0.5005012

 Al 
  0.4904980  0.2595107  0.7394312

 Al 
  0.7485236  0.0062101  0.7590342

 Al 
  0.7456512  0.2474791  0.5000235

 Al 
  0.4881590  0.4934075  0.4965979

 Al 
  0.4975583  0.7755606  0.7489840

 Al 
  0.7470051  0.4848213  0.7507079

 Al 
  0.7609537  0.7476499  0.5091369

