32 
charge = 0 
 Al 
  0.0065294  0.9919930  0.0011584

 Al 
  0.9797683  0.2433159  0.2399188

 Al 
  0.2500111  0.0027288  0.2548017

 Al 
  0.2462428  0.2534293  0.0099438

 Al 
  0.5046805  0.9951686  0.0007797

 Al 
  0.4962836  0.2508453  0.2386033

 Al 
  0.7461339  0.9906119  0.2401725

 Al 
  0.7474927  0.2393570  0.9958888

 Al 
  0.9921526  0.4937639  0.0153495

 Al 
  0.0058066  0.7503082  0.2470917

 Al 
  0.2510247  0.4879387  0.2249282

 Al 
  0.2415054  0.7549502  0.0021917

 Al 
  0.0090293  0.9902010  0.5068264

 Al 
  0.0202626  0.2528662  0.7676501

 Al 
  0.2460051  0.9995966  0.7462131

 Al 
  0.2452131  0.2584352  0.4828709

 Al 
  0.0068759  0.5036174  0.5019454

 Al 
  0.0052349  0.7357680  0.7620737

 Al 
  0.2584030  0.5121120  0.7514207

 Al 
  0.2616517  0.7640191  0.4991250

 Al 
  0.4933283  0.4969766  0.9929719

 Al 
  0.5019467  0.7549317  0.2618831

 Al 
  0.7547213  0.5042510  0.2587619

 Al 
  0.7577212  0.7511039  0.9929546

 Al 
  0.4937231  0.0109438  0.4970336

 Al 
  0.4895686  0.2576791  0.7413160

 Al 
  0.7477922  0.0075875  0.7612383

 Al 
  0.7461029  0.2465621  0.5014814

 Al 
  0.4869561  0.4917752  0.4947181

 Al 
  0.4973912  0.7741250  0.7472823

 Al 
  0.7476152  0.4849203  0.7519046

 Al 
  0.7628236  0.7481189  0.5095008

