32 
charge = 0 
 Al 
  0.0151886  0.9923234  0.9976969

 Al 
  0.9837471  0.2402901  0.2411366

 Al 
  0.2491003  0.0067955  0.2471128

 Al 
  0.2464222  0.2622370  0.0017388

 Al 
  0.4974036  0.9927553  0.9968133

 Al 
  0.4901354  0.2497624  0.2392382

 Al 
  0.7473925  0.9906737  0.2444966

 Al 
  0.7489010  0.2389436  0.9998181

 Al 
  0.9886751  0.4936748  0.0206809

 Al 
  0.0070999  0.7537251  0.2465695

 Al 
  0.2503181  0.4909002  0.2247785

 Al 
  0.2343065  0.7462440  0.0051507

 Al 
  0.0088597  0.9901824  0.5056247

 Al 
  0.0247055  0.2537647  0.7677504

 Al 
  0.2444297  0.0041594  0.7518452

 Al 
  0.2436080  0.2582781  0.4825566

 Al 
  0.0089043  0.5007227  0.5060987

 Al 
  0.0025395  0.7316469  0.7649572

 Al 
  0.2590973  0.5107680  0.7495508

 Al 
  0.2629746  0.7617903  0.4967712

 Al 
  0.4944904  0.5008477  0.9898706

 Al 
  0.5025283  0.7555752  0.2556866

 Al 
  0.7546928  0.5073994  0.2611752

 Al 
  0.7579810  0.7561024  0.9993169

 Al 
  0.4960608  0.0077942  0.4907356

 Al 
  0.4877036  0.2532647  0.7456190

 Al 
  0.7474593  0.0094921  0.7635513

 Al 
  0.7477216  0.2446772  0.5037090

 Al 
  0.4858163  0.4902492  0.4911502

 Al 
  0.4979147  0.7693889  0.7446525

 Al 
  0.7488540  0.4861616  0.7540085

 Al 
  0.7649696  0.7494084  0.5101418

