32 
charge = 0 
 Al 
  0.0158297  0.9924298  0.9974061

 Al 
  0.9841815  0.2400129  0.2413668

 Al 
  0.2490174  0.0071197  0.2464086

 Al 
  0.2464965  0.2628310  0.0009554

 Al 
  0.4966920  0.9925821  0.9965200

 Al 
  0.4897319  0.2496609  0.2393050

 Al 
  0.7475199  0.9907257  0.2449309

 Al 
  0.7489741  0.2390005  0.0001980

 Al 
  0.9883694  0.4936872  0.0209940

 Al 
  0.0071915  0.7540147  0.2466215

 Al 
  0.2502450  0.4913173  0.2250309

 Al 
  0.2338981  0.7455002  0.0053723

 Al 
  0.0087817  0.9902789  0.5055146

 Al 
  0.0249134  0.2538575  0.7675907

 Al 
  0.2443555  0.0045208  0.7523303

 Al 
  0.2434149  0.2581840  0.4826259

 Al 
  0.0090961  0.5004455  0.5064205

 Al 
  0.0022944  0.7313871  0.7651218

 Al 
  0.2591097  0.5106307  0.7493763

 Al 
  0.2629895  0.7614920  0.4965645

 Al 
  0.4947168  0.5012561  0.9896602

 Al 
  0.5025469  0.7555579  0.2550431

 Al 
  0.7545975  0.5076271  0.2613299

 Al 
  0.7579142  0.7564601  0.9998874

 Al 
  0.4963207  0.0075454  0.4902183

 Al 
  0.4875464  0.2528192  0.7460225

 Al 
  0.7475051  0.0095998  0.7636256

 Al 
  0.7479122  0.2445077  0.5038624

 Al 
  0.4858014  0.4902233  0.4908458

 Al 
  0.4980149  0.7688444  0.7444619

 Al 
  0.7489617  0.4863398  0.7541854

 Al 
  0.7650574  0.7495384  0.5102037

