32 
charge = 0 
 Al 
  0.0193580  0.9933951  0.9956438

 Al 
  0.9872209  0.2382630  0.2432268

 Al 
  0.2484976  0.0090194  0.2419286

 Al 
  0.2472006  0.2660450  0.9959829

 Al 
  0.4920227  0.9916378  0.9948604

 Al 
  0.4876689  0.2490496  0.2396985

 Al 
  0.7483837  0.9912801  0.2478219

 Al 
  0.7492414  0.2396466  0.0027350

 Al 
  0.9864239  0.4938209  0.0224370

 Al 
  0.0076741  0.7557992  0.2473504

 Al 
  0.2497661  0.4943778  0.2275543

 Al 
  0.2321432  0.7409052  0.0065418

 Al 
  0.0081543  0.9911985  0.5048339

 Al 
  0.0254529  0.2545419  0.7659670

 Al 
  0.2441797  0.0064885  0.7551990

 Al 
  0.2420672  0.2572732  0.4833870

 Al 
  0.0102928  0.4986585  0.5082620

 Al 
  0.0007401  0.7301173  0.7658482

 Al 
  0.2590317  0.5097359  0.7482130

 Al 
  0.2627085  0.7593386  0.4952564

 Al 
  0.4965559  0.5040654  0.9885921

 Al 
  0.5025110  0.7551742  0.2506547

 Al 
  0.7537015  0.5088572  0.2621541

 Al 
  0.7571915  0.7584451  0.0034924

 Al 
  0.4980867  0.0060529  0.4871133

 Al 
  0.4866616  0.2498552  0.7485756

 Al 
  0.7480496  0.0100478  0.7636998

 Al 
  0.7492674  0.2434768  0.5046965

 Al 
  0.4860254  0.4903879  0.4889758

 Al 
  0.4988169  0.7650079  0.7433828

 Al 
  0.7496275  0.4876739  0.7552856

 Al 
  0.7652765  0.7503614  0.5106269

