32 
charge = 0 
 Al 
  0.0204309  0.9938605  0.9950386

 Al 
  0.9884387  0.2376392  0.2440473

 Al 
  0.2483120  0.0096468  0.2402987

 Al 
  0.2475459  0.2670363  0.9942008

 Al 
  0.4902690  0.9913544  0.9943233

 Al 
  0.4870996  0.2488478  0.2398198

 Al 
  0.7487228  0.9915759  0.2489233

 Al 
  0.7492661  0.2399795  0.0037127

 Al 
  0.9857111  0.4938877  0.0227687

 Al 
  0.0078115  0.7564279  0.2477724

 Al 
  0.2495842  0.4956302  0.2288142

 Al 
  0.2318128  0.7392765  0.0068623

 Al 
  0.0078882  0.9916427  0.5046025

 Al 
  0.0253379  0.2548277  0.7651453

 Al 
  0.2442330  0.0070615  0.7561358

 Al 
  0.2415462  0.2568103  0.4837855

 Al 
  0.0107123  0.4980075  0.5088510

 Al 
  0.0001757  0.7297968  0.7659980

 Al 
  0.2589476  0.5094055  0.7477674

 Al 
  0.2624623  0.7584724  0.4947750

 Al 
  0.4973727  0.5051705  0.9883125

 Al 
  0.5024293  0.7549267  0.2489406

 Al 
  0.7532672  0.5092211  0.2623991

 Al 
  0.7568227  0.7590651  0.0047956

 Al 
  0.4987612  0.0055282  0.4860527

 Al 
  0.4863955  0.2487265  0.7494926

 Al 
  0.7483380  0.0101220  0.7635884

 Al 
  0.7498144  0.2431266  0.5049502

 Al 
  0.4862259  0.4905623  0.4883211

 Al 
  0.4991684  0.7634721  0.7430288

 Al 
  0.7498626  0.4882333  0.7556792

 Al 
  0.7652332  0.7506571  0.5107977

