32 
charge = 0 
 Al 
  0.0236362  0.9961462  0.9928803

 Al 
  0.9936303  0.2353361  0.2477117

 Al 
  0.2476276  0.0118076  0.2340528

 Al 
  0.2492129  0.2703678  0.9876442

 Al 
  0.4833387  0.9904930  0.9924360

 Al 
  0.4855428  0.2482402  0.2401267

 Al 
  0.7501819  0.9931513  0.2533476

 Al 
  0.7490768  0.2415747  0.0077570

 Al 
  0.9829650  0.4941995  0.0233615

 Al 
  0.0081605  0.7587793  0.2500309

 Al 
  0.2488305  0.5008490  0.2350069

 Al 
  0.2316828  0.7331531  0.0075764

 Al 
  0.0068165  0.9937404  0.5038389

 Al 
  0.0235397  0.2560740  0.7610613

 Al 
  0.2449322  0.0085825  0.7591184

 Al 
  0.2395463  0.2544057  0.4858113

 Al 
  0.0121714  0.4955584  0.5107433

 Al 
  0.9980261  0.7291335  0.7661539

 Al 
  0.2584352  0.5081382  0.7459222

 Al 
  0.2609388  0.7548884  0.4928432

 Al 
  0.5010482  0.5097433  0.9876974

 Al 
  0.5017858  0.7535382  0.2418568

 Al 
  0.7512004  0.5102841  0.2631924

 Al 
  0.7550344  0.7611319  0.0098040

 Al 
  0.5013984  0.0034615  0.4822633

 Al 
  0.4857321  0.2441835  0.7529281

 Al 
  0.7497871  0.0100428  0.7627048

 Al 
  0.7521496  0.2419608  0.5057769

 Al 
  0.4874957  0.4916143  0.4859054

 Al 
  0.5007363  0.7570219  0.7417442

 Al 
  0.7507326  0.4906502  0.7571741

 Al 
  0.7646057  0.7517487  0.5115291

