32 
charge = 0 
 Al 
  0.0228330  0.9953913  0.9934929

 Al 
  0.9920115  0.2359982  0.2465522

 Al 
  0.2478244  0.0112074  0.2358980

 Al 
  0.2486696  0.2694347  0.9895315

 Al 
  0.4854178  0.9907146  0.9929756

 Al 
  0.4859128  0.2483899  0.2400636

 Al 
  0.7497203  0.9926142  0.2520086

 Al 
  0.7491758  0.2410586  0.0065096

 Al 
  0.9837780  0.4941005  0.0232823

 Al 
  0.0080862  0.7580912  0.2492637

 Al 
  0.2490644  0.4992488  0.2329650

 Al 
  0.2315554  0.7349500  0.0074526

 Al 
  0.0071370  0.9930635  0.5040419

 Al 
  0.0242884  0.2556841  0.7624115

 Al 
  0.2446488  0.0082422  0.7583449

 Al 
  0.2401255  0.2552213  0.4851344

 Al 
  0.0117692  0.4962725  0.5102433

 Al 
  0.9986597  0.7292411  0.7661675

 Al 
  0.2586134  0.5085120  0.7464915

 Al 
  0.2614784  0.7559849  0.4934323

 Al 
  0.4998787  0.5083412  0.9878075

 Al 
  0.5020333  0.7540159  0.2440312

 Al 
  0.7518724  0.5100218  0.2629746

 Al 
  0.7556148  0.7605576  0.0083177

 Al 
  0.5006188  0.0040901  0.4833424

 Al 
  0.4858608  0.2455609  0.7519281

 Al 
  0.7493082  0.0101220  0.7630278

 Al 
  0.7514220  0.2422714  0.5055505

 Al 
  0.4870415  0.4912504  0.4866059

 Al 
  0.5002401  0.7590169  0.7421192

 Al 
  0.7504789  0.4898953  0.7567336

 Al 
  0.7648594  0.7514343  0.5113002

