32 
charge = 0 
 Al 
  0.0253453  0.0000433  0.9905277

 Al 
  0.0012165  0.2329229  0.2532053

 Al 
  0.2469742  0.0139053  0.2264851

 Al 
  0.2518502  0.2741250  0.9804527

 Al 
  0.4745087  0.9897864  0.9902282

 Al 
  0.4847607  0.2480137  0.2400995

 Al 
  0.7525395  0.9961747  0.2591988

 Al 
  0.7482550  0.2440659  0.0136045

 Al 
  0.9795604  0.4946550  0.0229060

 Al 
  0.0081234  0.7616640  0.2541483

 Al 
  0.2476635  0.5079167  0.2456611

 Al 
  0.2335714  0.7257450  0.0070999

 Al 
  0.0055220  0.9970373  0.5033006

 Al 
  0.0181687  0.2578647  0.7541038

 Al 
  0.2467885  0.0088325  0.7609326

 Al 
  0.2375551  0.2497909  0.4894510

 Al 
  0.0133607  0.4927838  0.5121665

 Al 
  0.9954012  0.7295852  0.7656143

 Al 
  0.2574885  0.5065888  0.7431798

 Al 
  0.2578994  0.7500000  0.4901292

 Al 
  0.5067051  0.5159435  0.9879511

 Al 
  0.5000557  0.7509777  0.2320739

 Al 
  0.7478788  0.5108373  0.2640562

 Al 
  0.7522920  0.7634486  0.0160858

 Al 
  0.5044862  0.0004591  0.4781731

 Al 
  0.4862197  0.2381095  0.7568004

 Al 
  0.7522598  0.0091369  0.7609376

 Al 
  0.7555455  0.2411502  0.5066581

 Al 
  0.4902270  0.4935535  0.4831568

 Al 
  0.5031298  0.7478355  0.7400525

 Al 
  0.7517573  0.4941241  0.7589587

 Al 
  0.7628942  0.7529256  0.5126058

