32 
charge = 0 
 Al 
  0.0253341  0.9996040  0.9907406

 Al 
  0.0004146  0.2331147  0.2526224

 Al 
  0.2470175  0.0137419  0.2271954

 Al 
  0.2515717  0.2737562  0.9810789

 Al 
  0.4753638  0.9898421  0.9904423

 Al 
  0.4847743  0.2479951  0.2401255

 Al 
  0.7522685  0.9958109  0.2586122

 Al 
  0.7483701  0.2437986  0.0129771

 Al 
  0.9798896  0.4946067  0.0230112

 Al 
  0.0081605  0.7613819  0.2536756

 Al 
  0.2477996  0.5072100  0.2444446

 Al 
  0.2332855  0.7264541  0.0072397

 Al 
  0.0056396  0.9966833  0.5033204

 Al 
  0.0188864  0.2576828  0.7548859

 Al 
  0.2465596  0.0089166  0.7609005

 Al 
  0.2376924  0.2503490  0.4890253

 Al 
  0.0132976  0.4930288  0.5120910

 Al 
  0.9956524  0.7294602  0.7657047

 Al 
  0.2575949  0.5067373  0.7434842

 Al 
  0.2582570  0.7504950  0.4904114

 Al 
  0.5060900  0.5153260  0.9878657

 Al 
  0.5002908  0.7512685  0.2330714

 Al 
  0.7482414  0.5108336  0.2639721

 Al 
  0.7525729  0.7632172  0.0154720

 Al 
  0.5042102  0.0007908  0.4785308

 Al 
  0.4860626  0.2387221  0.7564638

 Al 
  0.7519801  0.0092743  0.7611368

 Al 
  0.7551879  0.2411774  0.5065727

 Al 
  0.4898866  0.4933333  0.4834018

 Al 
  0.5028724  0.7487983  0.7402369

 Al 
  0.7516608  0.4937614  0.7587929

 Al 
  0.7631169  0.7528278  0.5124920

