32 
charge = 0 
 Al 
  0.0247314  0.0021484  0.9896565

 Al 
  0.0048748  0.2323511  0.2558475

 Al 
  0.2468912  0.0144114  0.2236016

 Al 
  0.2530654  0.2757747  0.9781100

 Al 
  0.4709222  0.9895673  0.9892839

 Al 
  0.4849314  0.2482810  0.2399027

 Al 
  0.7538847  0.9980224  0.2617630

 Al 
  0.7476338  0.2453035  0.0165264

 Al 
  0.9781805  0.4948852  0.0222439

 Al 
  0.0078164  0.7628706  0.2564291

 Al 
  0.2469568  0.5109438  0.2515556

 Al 
  0.2351183  0.7227513  0.0060900

 Al 
  0.0050728  0.9986486  0.5033897

 Al 
  0.0143211  0.2586382  0.7504010

 Al 
  0.2478900  0.0080058  0.7603881

 Al 
  0.2372977  0.2469506  0.4915796

 Al 
  0.0133830  0.4918680  0.5122048

 Al 
  0.9943629  0.7304589  0.7650884

 Al 
  0.2569959  0.5059750  0.7416848

 Al 
  0.2561371  0.7478553  0.4888879

 Al 
  0.5095936  0.5185572  0.9885525

 Al 
  0.4987550  0.7496176  0.2277004

 Al 
  0.7461994  0.5106591  0.2644263

 Al 
  0.7511064  0.7645018  0.0186946

 Al 
  0.5055133  0.9988528  0.4768229

 Al 
  0.4874301  0.2354327  0.7580008

 Al 
  0.7536087  0.0083461  0.7600082

 Al 
  0.7571494  0.2412727  0.5070343

 Al 
  0.4920016  0.4945980  0.4822397

 Al 
  0.5043203  0.7434459  0.7391491

 Al 
  0.7521435  0.4957576  0.7596220

 Al 
  0.7617135  0.7532449  0.5131144

