32 
charge = 0 
 Al 
  0.0251077  0.0013254  0.9899671

 Al 
  0.0034850  0.2325021  0.2548488

 Al 
  0.2468974  0.0142716  0.2246188

 Al 
  0.2526174  0.2751510  0.9788897

 Al 
  0.4722142  0.9896453  0.9896354

 Al 
  0.4848188  0.2481399  0.2399918

 Al 
  0.7533488  0.9972786  0.2608113

 Al 
  0.7478887  0.2448295  0.0154002

 Al 
  0.9786793  0.4947936  0.0225335

 Al 
  0.0079625  0.7624288  0.2555381

 Al 
  0.2472464  0.5098374  0.2492426

 Al 
  0.2344822  0.7238404  0.0065541

 Al 
  0.0052238  0.9980385  0.5033154

 Al 
  0.0159052  0.2583597  0.7518353

 Al 
  0.2474630  0.0084167  0.7607470

 Al 
  0.2373125  0.2480942  0.4907294

 Al 
  0.0134325  0.4921712  0.5122568

 Al 
  0.9947342  0.7300604  0.7653124

 Al 
  0.2571841  0.5061952  0.7422776

 Al 
  0.2568326  0.7486436  0.4893458

 Al 
  0.5084773  0.5176118  0.9882815

 Al 
  0.4993008  0.7501398  0.2293203

 Al 
  0.7468417  0.5107693  0.2642877

 Al 
  0.7515333  0.7640983  0.0177429

 Al 
  0.5051730  0.9994852  0.4772746

 Al 
  0.4868608  0.2364239  0.7576184

 Al 
  0.7530791  0.0086803  0.7603646

 Al 
  0.7565455  0.2411712  0.5068920

 Al 
  0.4912801  0.4941921  0.4825429

 Al 
  0.5038661  0.7451141  0.7395092

 Al 
  0.7520073  0.4951389  0.7593906

 Al 
  0.7621987  0.7531521  0.5129239

