32 
charge = 0 
 Al 
  0.0196735  0.0065022  0.9885748

 Al 
  0.0111084  0.2335751  0.2600688

 Al 
  0.2474469  0.0136602  0.2210039

 Al 
  0.2545233  0.2787090  0.9771199

 Al 
  0.4669459  0.9892258  0.9876726

 Al 
  0.4864116  0.2498960  0.2393260

 Al 
  0.7569427  0.0024306  0.2655339

 Al 
  0.7461388  0.2475236  0.0219519

 Al 
  0.9766311  0.4955163  0.0201277

 Al 
  0.0063796  0.7644584  0.2608188

 Al 
  0.2449223  0.5145958  0.2634597

 Al 
  0.2387642  0.7188048  0.0020370

 Al 
  0.0048797  0.0011732  0.5048079

 Al 
  0.0043971  0.2593659  0.7436513

 Al 
  0.2496819  0.0037857  0.7549552

 Al 
  0.2396156  0.2402641  0.4965819

 Al 
  0.0116158  0.4916700  0.5103064

 Al 
  0.9933568  0.7338944  0.7635216

 Al 
  0.2561841  0.5051767  0.7382902

 Al 
  0.2524318  0.7452230  0.4875179

 Al 
  0.5151094  0.5213121  0.9906317

 Al 
  0.4949446  0.7473974  0.2217539

 Al 
  0.7434087  0.5092000  0.2649993

 Al 
  0.7500272  0.7665871  0.0219742

 Al 
  0.5057497  0.9953629  0.4762215

 Al 
  0.4928395  0.2316284  0.7577905

 Al 
  0.7563722  0.0060430  0.7583956

 Al 
  0.7595354  0.2431600  0.5077174

 Al 
  0.4964618  0.4966054  0.4821791

 Al 
  0.5063289  0.7358571  0.7370539

 Al 
  0.7525073  0.4984939  0.7601505

 Al 
  0.7586654  0.7528984  0.5138038

