32 
charge = 0 
 Al 
  0.0203517  0.0060925  0.9886404

 Al 
  0.0106109  0.2333040  0.2597619

 Al 
  0.2473566  0.0138421  0.2210435

 Al 
  0.2544627  0.2784590  0.9769987

 Al 
  0.4671006  0.9892555  0.9878137

 Al 
  0.4862210  0.2496857  0.2393780

 Al 
  0.7566432  0.0019875  0.2652728

 Al 
  0.7462799  0.2473392  0.0214915

 Al 
  0.9766905  0.4954396  0.0203641

 Al 
  0.0065653  0.7643669  0.2604487

 Al 
  0.2451549  0.5144300  0.2624029

 Al 
  0.2384238  0.7190523  0.0025259

 Al 
  0.0048574  0.0009987  0.5046000

 Al 
  0.0054131  0.2593584  0.7441946

 Al 
  0.2495631  0.0043228  0.7557089

 Al 
  0.2392122  0.2409237  0.4960757

 Al 
  0.0118930  0.4915846  0.5105997

 Al 
  0.9933778  0.7334810  0.7636924

 Al 
  0.2562472  0.5052337  0.7386268

 Al 
  0.2527709  0.7453393  0.4875489

 Al 
  0.5146280  0.5212378  0.9904027

 Al 
  0.4953678  0.7475509  0.2220979

 Al 
  0.7436117  0.5093931  0.2649584

 Al 
  0.7500309  0.7663878  0.0217972

 Al 
  0.5058413  0.9956995  0.4761497

 Al 
  0.4921625  0.2318771  0.7579724

 Al 
  0.7561235  0.0062942  0.7585243

 Al 
  0.7593832  0.2428840  0.5076593

 Al 
  0.4960002  0.4964321  0.4820640

 Al 
  0.5061767  0.7364697  0.7372630

 Al 
  0.7524962  0.4982786  0.7601530

 Al 
  0.7589810  0.7529949  0.5137704

