32 
charge = 0 
 Al 
  0.0226103  0.0045122  0.9889585

 Al 
  0.0085120  0.2325615  0.2583931

 Al 
  0.2470744  0.0143297  0.2215880

 Al 
  0.2540753  0.2774417  0.9769244

 Al 
  0.4681266  0.9893755  0.9883694

 Al 
  0.4855688  0.2489790  0.2395933

 Al 
  0.7555034  0.0003218  0.2640835

 Al 
  0.7468343  0.2465781  0.0196042

 Al 
  0.9770915  0.4951834  0.0212093

 Al 
  0.0071816  0.7638978  0.2589166

 Al 
  0.2459730  0.5134337  0.2581592

 Al 
  0.2370836  0.7202379  0.0042189

 Al 
  0.0048426  0.0001943  0.5039342

 Al 
  0.0092149  0.2592087  0.7464977

 Al 
  0.2489963  0.0061408  0.7581791

 Al 
  0.2380142  0.2434310  0.4941859

 Al 
  0.0127518  0.4914534  0.5115205

 Al 
  0.9936043  0.7320479  0.7643112

 Al 
  0.2565145  0.5054787  0.7398978

 Al 
  0.2541099  0.7460571  0.4878756

 Al 
  0.5126875  0.5205770  0.9895686

 Al 
  0.4968838  0.7482625  0.2238614

 Al 
  0.7445263  0.5100416  0.2647728

 Al 
  0.7502413  0.7656304  0.0208579

 Al 
  0.5059799  0.9969890  0.4761138

 Al 
  0.4898557  0.2330503  0.7583696

 Al 
  0.7551309  0.0072039  0.7590676

 Al 
  0.7586444  0.2420053  0.5074204

 Al 
  0.4942924  0.4957279  0.4818573

 Al 
  0.5055096  0.7390426  0.7380526

 Al 
  0.7524120  0.4973615  0.7600626

 Al 
  0.7601517  0.7532437  0.5135723

