32 
charge = 0 
 Al 
  0.0125006  0.0101592  0.9882469

 Al 
  0.0148322  0.2371677  0.2620402

 Al 
  0.2484209  0.0112346  0.2221177

 Al 
  0.2544391  0.2806767  0.9795183

 Al 
  0.4672331  0.9889869  0.9863992

 Al 
  0.4883384  0.2520964  0.2390191

 Al 
  0.7595998  0.0065108  0.2671761

 Al 
  0.7449965  0.2489097  0.0254950

 Al 
  0.9768464  0.4964024  0.0178060

 Al 
  0.0043488  0.7648111  0.2635810

 Al 
  0.2425585  0.5145822  0.2718764

 Al 
  0.2415450  0.7174063  0.9970818

 Al 
  0.0052510  0.0021422  0.5071420

 Al 
  0.9951698  0.2589736  0.7398668

 Al 
  0.2503069  0.9981140  0.7468331

 Al 
  0.2446030  0.2344240  0.5012908

 Al 
  0.0083102  0.4932182  0.5069662

 Al 
  0.9937256  0.7381268  0.7618484

 Al 
  0.2556668  0.5046396  0.7352037

 Al 
  0.2496126  0.7453765  0.4881998

 Al 
  0.5189978  0.5204470  0.9927788

 Al 
  0.4908061  0.7465930  0.2205138

 Al 
  0.7421922  0.5072026  0.2652381

 Al 
  0.7507586  0.7684038  0.0225806

 Al 
  0.5041842  0.9923506  0.4777622

 Al 
  0.4998911  0.2302337  0.7550777

 Al 
  0.7583622  0.0035840  0.7573981

 Al 
  0.7601468  0.2462626  0.5081172

 Al 
  0.5007722  0.4979766  0.4841629

 Al 
  0.5073152  0.7313178  0.7351926

 Al 
  0.7524962  0.5000990  0.7597037

 Al 
  0.7557695  0.7515705  0.5137617

