32 
charge = 0 
 Al 
  0.0102829  0.0111876  0.9882283

 Al 
  0.0156824  0.2384647  0.2623880

 Al 
  0.2487154  0.0103584  0.2227897

 Al 
  0.2542597  0.2811383  0.9804836

 Al 
  0.4677442  0.9889399  0.9860217

 Al 
  0.4889090  0.2527746  0.2390005

 Al 
  0.7603163  0.0076642  0.2674645

 Al 
  0.7447267  0.2492216  0.0263032

 Al 
  0.9771125  0.4967192  0.0171081

 Al 
  0.0036817  0.7647777  0.2641788

 Al 
  0.2418445  0.5141726  0.2738775

 Al 
  0.2422293  0.7172108  0.9955807

 Al 
  0.0053661  0.0022536  0.5078895

 Al 
  0.9926390  0.2587508  0.7391379

 Al 
  0.2503787  0.9963331  0.7442961

 Al 
  0.2463430  0.2328573  0.5026372

 Al 
  0.0071717  0.4938518  0.5058858

 Al 
  0.9939694  0.7394188  0.7613398

 Al 
  0.2555208  0.5044503  0.7343300

 Al 
  0.2488998  0.7457477  0.4886639

 Al 
  0.5199545  0.5197973  0.9933877

 Al 
  0.4895859  0.7465224  0.2206673

 Al 
  0.7420313  0.5066012  0.2652604

 Al 
  0.7511485  0.7689174  0.0225026

 Al 
  0.5035840  0.9915227  0.4784157

 Al 
  0.5020680  0.2300567  0.7540679

 Al 
  0.7588251  0.0028452  0.7571432

 Al 
  0.7600898  0.2472712  0.5081753

 Al 
  0.5020024  0.4983021  0.4849673

 Al 
  0.5074774  0.7303215  0.7347000

 Al 
  0.7524788  0.5004653  0.7594661

 Al 
  0.7549614  0.7510841  0.5136404

