32 
charge = 0 
 Al 
  0.0145760  0.0091716  0.9882939

 Al 
  0.0139436  0.2360230  0.2616306

 Al 
  0.2481399  0.0120093  0.2215979

 Al 
  0.2545567  0.2801953  0.9786867

 Al 
  0.4668977  0.9890426  0.9867519

 Al 
  0.4877964  0.2514628  0.2390686

 Al 
  0.7588944  0.0054007  0.2668370

 Al 
  0.7452787  0.2485793  0.0246436

 Al 
  0.9766695  0.4961264  0.0184620

 Al 
  0.0049552  0.7647938  0.2629338

 Al 
  0.2432318  0.5148248  0.2698010

 Al 
  0.2408470  0.7176625  0.9984939

 Al 
  0.0051359  0.0019751  0.5064514

 Al 
  0.9976449  0.2591493  0.7407010

 Al 
  0.2502042  0.9997649  0.7492005

 Al 
  0.2430498  0.2359698  0.5000012

 Al 
  0.0093263  0.4926811  0.5079625

 Al 
  0.9935412  0.7369153  0.7623212

 Al 
  0.2558042  0.5048005  0.7360428

 Al 
  0.2503317  0.7451413  0.4878570

 Al 
  0.5180226  0.5209222  0.9921922

 Al 
  0.4919657  0.7467180  0.2205534

 Al 
  0.7424175  0.5077719  0.2651973

 Al 
  0.7504468  0.7679100  0.0225657

 Al 
  0.5047102  0.9931563  0.4772128

 Al 
  0.4978578  0.2304824  0.7559651

 Al 
  0.7578746  0.0042770  0.7576494

 Al 
  0.7601096  0.2453356  0.5080355

 Al 
  0.4995904  0.4976387  0.4834798

 Al 
  0.5071135  0.7323845  0.7356839

 Al 
  0.7525110  0.4997166  0.7598906

 Al 
  0.7565529  0.7519987  0.5138347

