32 
charge = 0 
 Al 
  0.0135587  0.0096592  0.9882679

 Al 
  0.0143916  0.2365749  0.2618435

 Al 
  0.2482786  0.0116356  0.2218380

 Al 
  0.2545060  0.2804378  0.9790840

 Al 
  0.4670437  0.9890142  0.9865786

 Al 
  0.4880637  0.2517734  0.2390414

 Al 
  0.7592446  0.0059490  0.2670128

 Al 
  0.7451364  0.2487463  0.0250743

 Al 
  0.9767474  0.4962588  0.0181402

 Al 
  0.0046607  0.7648087  0.2632630

 Al 
  0.2429013  0.5147245  0.2708455

 Al 
  0.2411960  0.7175264  0.9978009

 Al 
  0.0051928  0.0020655  0.5067880

 Al 
  0.9964173  0.2590676  0.7402728

 Al 
  0.2502599  0.9989580  0.7480409

 Al 
  0.2438010  0.2352025  0.5006373

 Al 
  0.0088337  0.4929372  0.5074774

 Al 
  0.9936253  0.7375093  0.7620897

 Al 
  0.2557361  0.5047225  0.7356294

 Al 
  0.2499728  0.7452416  0.4880130

 Al 
  0.5185115  0.5207069  0.9924818

 Al 
  0.4913952  0.7466487  0.2205101

 Al 
  0.7422974  0.5074922  0.2652195

 Al 
  0.7505928  0.7681538  0.0225843

 Al 
  0.5044577  0.9927565  0.4774739

 Al 
  0.4988540  0.2303500  0.7555381

 Al 
  0.7581209  0.0039367  0.7575244

 Al 
  0.7601393  0.2457873  0.5080788

 Al 
  0.5001733  0.4978083  0.4838065

 Al 
  0.5072187  0.7318437  0.7354388

 Al 
  0.7525036  0.4999097  0.7598040

 Al 
  0.7561655  0.7517920  0.5138038

