32 
charge = 0 
 Al 
  0.0114066  0.0106690  0.9882345

 Al 
  0.0152629  0.2377976  0.2622222

 Al 
  0.2485669  0.0108089  0.2224358

 Al 
  0.2543575  0.2809106  0.9799849

 Al 
  0.4674670  0.9889622  0.9862136

 Al 
  0.4886219  0.2524306  0.2390055

 Al 
  0.7599574  0.0070838  0.2673271

 Al 
  0.7448604  0.2490681  0.0259059

 Al 
  0.9769690  0.4965559  0.0174620

 Al 
  0.0040221  0.7648012  0.2638867

 Al 
  0.2422046  0.5143990  0.2728887

 Al 
  0.2418903  0.7173011  0.9963405

 Al 
  0.0053091  0.0022053  0.5075095

 Al 
  0.9939075  0.2588684  0.7394881

 Al 
  0.2503465  0.9972378  0.7455819

 Al 
  0.2454507  0.2336419  0.5019591

 Al 
  0.0077546  0.4935238  0.5064353

 Al 
  0.9938407  0.7387642  0.7615972

 Al 
  0.2555950  0.5045493  0.7347706

 Al 
  0.2492550  0.7455448  0.4884177

 Al 
  0.5194792  0.5201438  0.9930808

 Al 
  0.4902022  0.7465509  0.2205658

 Al 
  0.7421031  0.5069044  0.2652517

 Al 
  0.7509443  0.7686587  0.0225533

 Al 
  0.5038921  0.9919385  0.4780766

 Al 
  0.5009641  0.2301359  0.7545864

 Al 
  0.7585986  0.0032201  0.7572719

 Al 
  0.7601307  0.2467576  0.5081493

 Al 
  0.5013824  0.4981412  0.4845515

 Al 
  0.5074006  0.7308091  0.7349463

 Al 
  0.7524875  0.5002846  0.7595911

 Al 
  0.7553673  0.7513341  0.5137072

