32 
charge = 0 
 Al 
  0.0068165  0.0127679  0.9882617

 Al 
  0.0168482  0.2406292  0.2627865

 Al 
  0.2491622  0.0088931  0.2240421

 Al 
  0.2538909  0.2817695  0.9821197

 Al 
  0.4688122  0.9888904  0.9854166

 Al 
  0.4897802  0.2538315  0.2390426

 Al 
  0.7613682  0.0094228  0.2678023

 Al 
  0.7443629  0.2496362  0.0273798

 Al 
  0.9776669  0.4972637  0.0160153

 Al 
  0.0025939  0.7646255  0.2649473

 Al 
  0.2407443  0.5132642  0.2766286

 Al 
  0.2432021  0.7170338  0.9932429

 Al 
  0.0055072  0.0023155  0.5090664

 Al 
  0.9888793  0.2583449  0.7382865

 Al 
  0.2504406  0.9935016  0.7403359

 Al 
  0.2492179  0.2305579  0.5046928

 Al 
  0.0052856  0.4949582  0.5041805

 Al 
  0.9944285  0.7414373  0.7605279

 Al 
  0.2552782  0.5041013  0.7329872

 Al 
  0.2478763  0.7465460  0.4895723

 Al 
  0.5213084  0.5185275  0.9943122

 Al 
  0.4877098  0.7465212  0.2212539

 Al 
  0.7419249  0.5056829  0.2652554

 Al 
  0.7518452  0.7696995  0.0222266

 Al 
  0.5025989  0.9902814  0.4795530

 Al 
  0.5054787  0.2299255  0.7523823

 Al 
  0.7594352  0.0016806  0.7567435

 Al 
  0.7598188  0.2488825  0.5081989

 Al 
  0.5038773  0.4987501  0.4863633

 Al 
  0.5076333  0.7290109  0.7339958

 Al 
  0.7524553  0.5009752  0.7590194

 Al 
  0.7537498  0.7502710  0.5133595

