32 
charge = 0 
 Al 
  0.9975063  0.0170400  0.9888545

 Al 
  0.0191872  0.2474085  0.2631751

 Al 
  0.2502351  0.0042906  0.2285766

 Al 
  0.2524392  0.2829439  0.9872667

 Al 
  0.4732996  0.9889486  0.9835850

 Al 
  0.4919769  0.2566606  0.2398050

 Al 
  0.7637741  0.0140030  0.2682058

 Al 
  0.7437639  0.2503750  0.0291619

 Al 
  0.9800530  0.4991671  0.0129808

 Al 
  0.9992674  0.7635847  0.2660240

 Al 
  0.2380241  0.5091790  0.2818907

 Al 
  0.2453690  0.7172578  0.9869648

 Al 
  0.0053945  0.0019034  0.5121813

 Al 
  0.9799577  0.2570034  0.7376937

 Al 
  0.2505829  0.9853547  0.7299465

 Al 
  0.2580206  0.2253317  0.5100106

 Al 
  0.9992847  0.4987129  0.4996770

 Al 
  0.9961004  0.7469110  0.7580305

 Al 
  0.2543921  0.5025543  0.7293129

 Al 
  0.2455596  0.7499468  0.4930932

 Al 
  0.5241721  0.5135538  0.9967093

 Al 
  0.4828239  0.7470781  0.2249158

 Al 
  0.7425585  0.5033686  0.2649337

 Al 
  0.7541075  0.7717093  0.0206438

 Al 
  0.4998602  0.9871628  0.4833362

 Al 
  0.5147889  0.2304626  0.7471870

 Al 
  0.7602507  0.9982575  0.7553698

 Al 
  0.7578164  0.2534553  0.5076135

 Al 
  0.5087137  0.4995025  0.4910289

 Al 
  0.5074192  0.7269838  0.7326184

 Al 
  0.7525048  0.5021039  0.7572905

 Al 
  0.7507970  0.7477823  0.5119177

