32 
charge = 0 
 Al 
  0.0002562  0.0157579  0.9885748

 Al 
  0.0186204  0.2452230  0.2631553

 Al 
  0.2499443  0.0057769  0.2270333

 Al 
  0.2529417  0.2826865  0.9856146

 Al 
  0.4716870  0.9888941  0.9841716

 Al 
  0.4913544  0.2558277  0.2394386

 Al 
  0.7631392  0.0126665  0.2681526

 Al 
  0.7438716  0.2502116  0.0288352

 Al 
  0.9791879  0.4985124  0.0139053

 Al 
  0.0003354  0.7640055  0.2658767

 Al 
  0.2387691  0.5106727  0.2806866

 Al 
  0.2447899  0.7170697  0.9888285

 Al 
  0.0055430  0.0021150  0.5112829

 Al 
  0.9823858  0.2574303  0.7375773

 Al 
  0.2505161  0.9878843  0.7329414

 Al 
  0.2552225  0.2267004  0.5084686

 Al 
  0.0012537  0.4974593  0.5009727

 Al 
  0.9955349  0.7452799  0.7588473

 Al 
  0.2547151  0.5031558  0.7304341

 Al 
  0.2461834  0.7487327  0.4918754

 Al 
  0.5234543  0.5152987  0.9960101

 Al 
  0.4842409  0.7468269  0.2234691

 Al 
  0.7422034  0.5040233  0.2650908

 Al 
  0.7533872  0.7711326  0.0212489

 Al 
  0.5006596  0.9880612  0.4820900

 Al 
  0.5120019  0.2301421  0.7488404

 Al 
  0.7601715  0.9993490  0.7558623

 Al 
  0.7586444  0.2520506  0.5079291

 Al 
  0.5073090  0.4993713  0.4894844

 Al 
  0.5075986  0.7273180  0.7329192

 Al 
  0.7524627  0.5017982  0.7579018

 Al 
  0.7516163  0.7485669  0.5124821

