32 
charge = 0 
 Al 
  0.0045183  0.0138112  0.9883285

 Al 
  0.0175313  0.2421588  0.2629697

 Al 
  0.2494468  0.0078573  0.2249950

 Al 
  0.2535939  0.2821321  0.9832830

 Al 
  0.4696871  0.9888756  0.9849995

 Al 
  0.4903433  0.2545320  0.2391255

 Al 
  0.7620229  0.0105688  0.2679632

 Al 
  0.7441599  0.2498676  0.0279801

 Al 
  0.9781261  0.4976635  0.0152851

 Al 
  0.0018365  0.7644597  0.2653532

 Al 
  0.2400314  0.5124907  0.2782214

 Al 
  0.2437924  0.7169905  0.9916984

 Al 
  0.0055641  0.0022907  0.5098473

 Al 
  0.9865093  0.2580429  0.7379004

 Al 
  0.2504653  0.9915809  0.7377234

 Al 
  0.2512314  0.2291297  0.5060306

 Al 
  0.0039528  0.4957688  0.5030481

 Al 
  0.9947812  0.7427788  0.7599673

 Al 
  0.2551025  0.5038241  0.7321011

 Al 
  0.2472489  0.7472093  0.4902901

 Al 
  0.5221227  0.5175251  0.9949136

 Al 
  0.4864833  0.7465831  0.2218591

 Al 
  0.7419472  0.5050889  0.2652245

 Al 
  0.7523551  0.7702082  0.0219506

 Al 
  0.5019244  0.9894881  0.4803822

 Al 
  0.5077509  0.2299292  0.7511955

 Al 
  0.7597619  0.0008910  0.7564626

 Al 
  0.7595131  0.2499715  0.5081605

 Al 
  0.5050950  0.4990050  0.4873806

 Al 
  0.5076741  0.7282969  0.7335751

 Al 
  0.7524467  0.5012809  0.7586728

 Al 
  0.7529776  0.7496993  0.5131095

