32 
charge = 0 
 Al 
  0.9932281  0.0191426  0.9896391

 Al 
  0.0197589  0.2513799  0.2630216

 Al 
  0.2505903  0.0015915  0.2315529

 Al 
  0.2514504  0.2830800  0.9902257

 Al 
  0.4766546  0.9891565  0.9825194

 Al 
  0.4928729  0.2579464  0.2408594

 Al 
  0.7645364  0.0160475  0.2681773

 Al 
  0.7438109  0.2505235  0.0290703

 Al 
  0.9818375  0.5005049  0.0114215

 Al 
  0.9972910  0.7625922  0.2657740

 Al 
  0.2371071  0.5060789  0.2829204

 Al 
  0.2461883  0.7179348  0.9839996

 Al 
  0.0047250  0.0013923  0.5134412

 Al 
  0.9767561  0.2562930  0.7386788

 Al 
  0.2508601  0.9809898  0.7256411

 Al 
  0.2629449  0.2237538  0.5123546

 Al 
  0.9955547  0.5010990  0.4978281

 Al 
  0.9971437  0.7495273  0.7564675

 Al 
  0.2536459  0.5010606  0.7273637

 Al 
  0.2446797  0.7523093  0.4953802

 Al 
  0.5249666  0.5100700  0.9978058

 Al 
  0.4807114  0.7476462  0.2281929

 Al 
  0.7436154  0.5024553  0.2644659

 Al 
  0.7553116  0.7725261  0.0193258

 Al 
  0.4987637  0.9857519  0.4856517

 Al 
  0.5193010  0.2314539  0.7442862

 Al 
  0.7598485  0.9962056  0.7542411

 Al 
  0.7558487  0.2558339  0.5066073

 Al 
  0.5108509  0.4993985  0.4939161

 Al 
  0.5068128  0.7272189  0.7325392

 Al 
  0.7526682  0.5025778  0.7560504

 Al 
  0.7496634  0.7464569  0.5105774

