32 
charge = 0 
 Al 
  0.9926514  0.0194458  0.9898000

 Al 
  0.0197899  0.2519987  0.2629783

 Al 
  0.2506213  0.0011707  0.2320380

 Al 
  0.2512858  0.2830565  0.9906849

 Al 
  0.4772350  0.9892047  0.9823548

 Al 
  0.4929830  0.2581159  0.2410772

 Al 
  0.7646057  0.0163173  0.2681625

 Al 
  0.7438506  0.2505322  0.0289652

 Al 
  0.9821407  0.5007351  0.0111913

 Al 
  0.9969729  0.7624078  0.2656688

 Al 
  0.2370266  0.5055517  0.2829464

 Al 
  0.2462947  0.7180882  0.9835899

 Al 
  0.0045617  0.0013044  0.5135835

 Al 
  0.9764108  0.2561928  0.7389288

 Al 
  0.2509282  0.9803388  0.7251287

 Al 
  0.2636887  0.2236275  0.5126640

 Al 
  0.9949507  0.5014863  0.4976103

 Al 
  0.9973046  0.7498923  0.7562101

 Al 
  0.2535035  0.5007673  0.7270643

 Al 
  0.2445696  0.7526806  0.4957341

 Al 
  0.5250285  0.5094896  0.9979568

 Al 
  0.4804440  0.7477414  0.2287845

 Al 
  0.7438345  0.5023514  0.2643644

 Al 
  0.7554799  0.7726189  0.0190931

 Al 
  0.4986498  0.9855539  0.4860193

 Al 
  0.5199384  0.2316618  0.7438493

 Al 
  0.7597124  0.9958690  0.7540295

 Al 
  0.7554886  0.2561829  0.5063895

 Al 
  0.5111306  0.4993379  0.4943765

 Al 
  0.5066828  0.7273637  0.7325937

 Al 
  0.7527053  0.5026484  0.7558425

 Al 
  0.7495310  0.7462663  0.5103213

