32 
charge = 0 
 Al 
  0.9911118  0.0202948  0.9903458

 Al 
  0.0197837  0.2538117  0.2628224

 Al 
  0.2506633  0.9999356  0.2334971

 Al 
  0.2507859  0.2829068  0.9920289

 Al 
  0.4790406  0.9893780  0.9818747

 Al 
  0.4932639  0.2585590  0.2418110

 Al 
  0.7647220  0.0170227  0.2680994

 Al 
  0.7440226  0.2505359  0.0284986

 Al 
  0.9830640  0.5014554  0.0105304

 Al 
  0.9960200  0.7618138  0.2652468

 Al 
  0.2368992  0.5039429  0.2828164

 Al 
  0.2465843  0.7186266  0.9824724

 Al 
  0.0039738  0.0010433  0.5139040

 Al 
  0.9756485  0.2559118  0.7398186

 Al 
  0.2511856  0.9784825  0.7239109

 Al 
  0.2658309  0.2234667  0.5134845

 Al 
  0.9931377  0.5026546  0.4970905

 Al 
  0.9977600  0.7508935  0.7554230

 Al 
  0.2530419  0.4997859  0.7261769

 Al 
  0.2442825  0.7537412  0.4967415

 Al 
  0.5251015  0.5077311  0.9983701

 Al 
  0.4797745  0.7480224  0.2306532

 Al 
  0.7445634  0.5021138  0.2640092

 Al 
  0.7559366  0.7728293  0.0183654

 Al 
  0.4984271  0.9850045  0.4871170

 Al 
  0.5217031  0.2323672  0.7426043

 Al 
  0.7591827  0.9948443  0.7533352

 Al 
  0.7543488  0.2571667  0.5056371

 Al 
  0.5118583  0.4990916  0.4957440

 Al 
  0.5062435  0.7279640  0.7328721

 Al 
  0.7528377  0.5028612  0.7552139

 Al 
  0.7492042  0.7457415  0.5094859

