32 
charge = 0 
 Al 
  0.9951772  0.0181612  0.9892097

 Al 
  0.0195597  0.2494567  0.2631231

 Al 
  0.2504505  0.0028984  0.2300827

 Al 
  0.2519417  0.2830726  0.9887988

 Al 
  0.4749554  0.9890364  0.9830355

 Al 
  0.4924781  0.2573635  0.2402789

 Al 
  0.7642344  0.0151230  0.2682083

 Al 
  0.7437454  0.2504740  0.0292349

 Al 
  0.9809403  0.4998292  0.0121591

 Al 
  0.9982575  0.7631120  0.2659831

 Al 
  0.2374722  0.5076419  0.2826085

 Al 
  0.2458245  0.7175462  0.9853646

 Al 
  0.0051235  0.0016559  0.5128991

 Al 
  0.9781001  0.2566247  0.7380711

 Al 
  0.2506943  0.9830652  0.7275209

 Al 
  0.2605898  0.2243589  0.5112952

 Al 
  0.9973900  0.4999233  0.4986337

 Al 
  0.9966400  0.7483194  0.7572410

 Al 
  0.2540382  0.5018613  0.7282993

 Al 
  0.2450671  0.7511522  0.4942701

 Al 
  0.5246671  0.5118076  0.9973034

 Al 
  0.4816519  0.7473578  0.2264987

 Al 
  0.7430325  0.5028489  0.2647270

 Al 
  0.7547498  0.7721734  0.0200002

 Al 
  0.4992240  0.9864017  0.4845218

 Al 
  0.5172071  0.2309019  0.7456698

 Al 
  0.7601393  0.9972180  0.7548339

 Al 
  0.7568771  0.2547102  0.5071741

 Al 
  0.5098869  0.4995075  0.4925053

 Al 
  0.5071531  0.7269615  0.7324934

 Al 
  0.7525741  0.5023576  0.7566717

 Al 
  0.7501535  0.7470781  0.5112853

