32 
charge = 0 
 Al 
  0.9902245  0.0208245  0.9907678

 Al 
  0.0196946  0.2550010  0.2626949

 Al 
  0.2506472  0.9991226  0.2344884

 Al 
  0.2504406  0.2827372  0.9929162

 Al 
  0.4803166  0.9895203  0.9815653

 Al 
  0.4934137  0.2588028  0.2423729

 Al 
  0.7647258  0.0174175  0.2680449

 Al 
  0.7441810  0.2505235  0.0280580

 Al 
  0.9837013  0.5019665  0.0101059

 Al 
  0.9953728  0.7613781  0.2648743

 Al 
  0.2369140  0.5028390  0.2825677

 Al 
  0.2467650  0.7190597  0.9818091

 Al 
  0.0034936  0.0008774  0.5140290

 Al 
  0.9753552  0.2557386  0.7405302

 Al 
  0.2514022  0.9773142  0.7233590

 Al 
  0.2672009  0.2235323  0.5139535

 Al 
  0.9919150  0.5034516  0.4968554

 Al 
  0.9980434  0.7514925  0.7548760

 Al 
  0.2526954  0.4990384  0.7255817

 Al 
  0.2441203  0.7543983  0.4973677

 Al 
  0.5250631  0.5065269  0.9986214

 Al 
  0.4794317  0.7482006  0.2319947

 Al 
  0.7451166  0.5020185  0.2637196

 Al 
  0.7562002  0.7729098  0.0178469

 Al 
  0.4983800  0.9846641  0.4878570

 Al 
  0.5227786  0.2329105  0.7418172

 Al 
  0.7587223  0.9941352  0.7528142

 Al 
  0.7535382  0.2577806  0.5050480

 Al 
  0.5122568  0.4988726  0.4966586

 Al 
  0.5059056  0.7285048  0.7331592

 Al 
  0.7529417  0.5030135  0.7547857

 Al 
  0.7490384  0.7454272  0.5088597

