32 
charge = 0 
 Al 
  0.9890711  0.0215819  0.9915103

 Al 
  0.0194273  0.2567856  0.2624672

 Al 
  0.2505544  0.9978986  0.2360353

 Al 
  0.2498948  0.2823623  0.9942713

 Al 
  0.4823833  0.9897827  0.9811148

 Al 
  0.4935981  0.2590961  0.2433419

 Al 
  0.7646218  0.0179051  0.2679385

 Al 
  0.7444928  0.2504876  0.0271892

 Al 
  0.9847050  0.5028006  0.0094735

 Al 
  0.9943604  0.7606529  0.2641614

 Al 
  0.2370910  0.5011150  0.2819613

 Al 
  0.2470398  0.7198443  0.9809131

 Al 
  0.0026236  0.0006522  0.5140810

 Al 
  0.9752203  0.2554923  0.7417863

 Al 
  0.2518093  0.9756448  0.7229209

 Al 
  0.2692094  0.2238911  0.5145599

 Al 
  0.9900290  0.5047003  0.4966660

 Al 
  0.9984419  0.7523068  0.7539998

 Al 
  0.2521039  0.4977476  0.7246621

 Al 
  0.2439112  0.7552955  0.4982365

 Al 
  0.5248676  0.5046433  0.9989703

 Al 
  0.4790666  0.7484469  0.2341951

 Al 
  0.7460571  0.5019665  0.2631825

 Al 
  0.7565380  0.7729333  0.0170041

 Al 
  0.4984728  0.9841753  0.4890092

 Al 
  0.5242785  0.2338560  0.7406824

 Al 
  0.7578573  0.9930065  0.7519207

 Al 
  0.7522412  0.2586506  0.5040097

 Al 
  0.5127308  0.4984679  0.4980657

 Al 
  0.5053252  0.7295369  0.7337558

 Al 
  0.7531286  0.5032709  0.7541211

 Al 
  0.7488515  0.7450052  0.5077929

