32 
charge = 0 
 Al 
  0.9881132  0.0223108  0.9924125

 Al 
  0.0189768  0.2585998  0.2621912

 Al 
  0.2503663  0.9966450  0.2376937

 Al 
  0.2493008  0.2818190  0.9956908

 Al 
  0.4846852  0.9901205  0.9806829

 Al 
  0.4937454  0.2592978  0.2444904

 Al 
  0.7643731  0.0182738  0.2677961

 Al 
  0.7448988  0.2504369  0.0260396

 Al 
  0.9857878  0.5037399  0.0088238

 Al 
  0.9932751  0.7598176  0.2632394

 Al 
  0.2374734  0.4992909  0.2810752

 Al 
  0.2473417  0.7208208  0.9801198

 Al 
  0.0015531  0.0004703  0.5139597

 Al 
  0.9754480  0.2552547  0.7432887

 Al 
  0.2523254  0.9740694  0.7229741

 Al 
  0.2711895  0.2245681  0.5150636

 Al 
  0.9880526  0.5060455  0.4966784

 Al 
  0.9988008  0.7530320  0.7530320

 Al 
  0.2514059  0.4962180  0.7236820

 Al 
  0.2437280  0.7560554  0.4990038

 Al 
  0.5244951  0.5026286  0.9992971

 Al 
  0.4788909  0.7486572  0.2366727

 Al 
  0.7471474  0.5020296  0.2624895

 Al 
  0.7568029  0.7728219  0.0160586

 Al 
  0.4987822  0.9837013  0.4902418

 Al 
  0.5256757  0.2349871  0.7395958

 Al 
  0.7567559  0.9917702  0.7508601

 Al 
  0.7508391  0.2594711  0.5027598

 Al 
  0.5130575  0.4979716  0.4995446

 Al 
  0.5046421  0.7308450  0.7345787

 Al 
  0.7533526  0.5035877  0.7534219

 Al 
  0.7487191  0.7446438  0.5065393

