32 
charge = 0 
 Al 
  0.9864784  0.0242921  0.9962725

 Al 
  0.0162504  0.2642270  0.2611009

 Al 
  0.2491052  0.9926885  0.2435139

 Al 
  0.2471808  0.2788699  0.0004814

 Al 
  0.4932454  0.9917467  0.9797077

 Al 
  0.4941216  0.2592310  0.2491399

 Al 
  0.7625823  0.0185684  0.2670276

 Al 
  0.7467353  0.2502871  0.0206450

 Al 
  0.9895859  0.5073437  0.0065764

 Al 
  0.9895537  0.7565739  0.2590305

 Al 
  0.2400859  0.4933432  0.2767611

 Al 
  0.2486436  0.7251497  0.9784132

 Al 
  0.9970695  0.0004443  0.5124189

 Al 
  0.9783513  0.2545245  0.7492599

 Al 
  0.2545678  0.9702836  0.7265371

 Al 
  0.2769034  0.2285035  0.5159250

 Al 
  0.9816890  0.5106963  0.4980397

 Al 
  0.9995396  0.7546112  0.7494716

 Al 
  0.2485694  0.4900475  0.7204012

 Al 
  0.2432429  0.7569972  0.5003688

 Al 
  0.5221152  0.4957118  0.0001794

 Al 
  0.4797126  0.7488577  0.2460262

 Al 
  0.7512623  0.5029875  0.2590924

 Al 
  0.7570529  0.7714185  0.0124400

 Al 
  0.5012400  0.9823932  0.4945980

 Al 
  0.5293005  0.2397307  0.7368014

 Al 
  0.7519170  0.9873459  0.7464432

 Al 
  0.7462291  0.2615712  0.4976078

 Al 
  0.5130031  0.4960980  0.5045270

 Al 
  0.5019690  0.7363806  0.7386020

 Al 
  0.7542708  0.5050443  0.7511559

 Al 
  0.7484221  0.7440312  0.5014356

