32 
charge = 0 
 Al 
  0.9864178  0.0247834  0.9978677

 Al 
  0.0148743  0.2659658  0.2607198

 Al 
  0.2484642  0.9914373  0.2456017

 Al 
  0.2464321  0.2774343  0.0021224

 Al 
  0.4964321  0.9925028  0.9796223

 Al 
  0.4942750  0.2589340  0.2509517

 Al 
  0.7616294  0.0183493  0.2666242

 Al 
  0.7474989  0.2502859  0.0182936

 Al 
  0.9909349  0.5087261  0.0057163

 Al 
  0.9882976  0.7553426  0.2572422

 Al 
  0.2414274  0.4914695  0.2749295

 Al 
  0.2492389  0.7269739  0.9781558

 Al 
  0.9953134  0.0006856  0.5115267

 Al 
  0.9799577  0.2542857  0.7515160

 Al 
  0.2554478  0.9696005  0.7288377

 Al 
  0.2785048  0.2302646  0.5159349

 Al 
  0.9797015  0.5122692  0.4988973

 Al 
  0.9996114  0.7548822  0.7481746

 Al 
  0.2474358  0.4876578  0.7193555

 Al 
  0.2430796  0.7566977  0.5003836

 Al 
  0.5209099  0.4933295  0.0004171

 Al 
  0.4804861  0.7487129  0.2495223

 Al 
  0.7527301  0.5035320  0.2575145

 Al 
  0.7569068  0.7705485  0.0110292

 Al 
  0.5025259  0.9820690  0.4961673

 Al 
  0.5302163  0.2416737  0.7362086

 Al 
  0.7499542  0.9857755  0.7446525

 Al 
  0.7448146  0.2620687  0.4955683

 Al 
  0.5126009  0.4954854  0.5062200

 Al 
  0.5009740  0.7385142  0.7403792

 Al 
  0.7546310  0.5056878  0.7504542

 Al 
  0.7482736  0.7440572  0.4993924

