32 
charge = 0 
 Al 
  0.9869536  0.0234691  0.9943431

 Al 
  0.0177367  0.2617259  0.2616207

 Al 
  0.2498020  0.9944607  0.2407814

 Al 
  0.2481771  0.2804478  0.9982687

 Al 
  0.4891552  0.9908990  0.9800493

 Al 
  0.4939520  0.2594030  0.2468628

 Al 
  0.7635860  0.0186043  0.2674447

 Al 
  0.7458096  0.2503403  0.0234073

 Al 
  0.9878075  0.5056000  0.0076432

 Al 
  0.9912739  0.7581444  0.2611665

 Al 
  0.2386392  0.4960237  0.2789627

 Al 
  0.2479741  0.7229642  0.9790270

 Al 
  0.9992773  0.0003317  0.5133310

 Al 
  0.9766559  0.2548525  0.7463678

 Al 
  0.2534565  0.9717242  0.7242921

 Al 
  0.2744505  0.2264269  0.5156774

 Al 
  0.9845453  0.5085417  0.4971858

 Al 
  0.9992921  0.7540345  0.7511633

 Al 
  0.2499666  0.4930622  0.7218962

 Al 
  0.2434545  0.7568846  0.4999777

 Al 
  0.5234196  0.4989171  0.9998082

 Al 
  0.4790728  0.7488713  0.2415388

 Al 
  0.7493070  0.5024182  0.2608683

 Al 
  0.7570578  0.7722650  0.0141936

 Al 
  0.4998540  0.9829390  0.4925474

 Al 
  0.5278117  0.2373719  0.7379152

 Al 
  0.7543364  0.9894263  0.7486350

 Al 
  0.7482984  0.2607235  0.5001448

 Al 
  0.5132357  0.4969729  0.5022313

 Al 
  0.5032585  0.7336617  0.7365242

 Al 
  0.7538204  0.5042956  0.7521744

 Al 
  0.7485607  0.7441971  0.5039503

