32 
charge = 0 
 Al 
  0.9871393  0.0232451  0.9939112

 Al 
  0.0180387  0.2610935  0.2617445

 Al 
  0.2499418  0.9949062  0.2401304

 Al 
  0.2484147  0.2807732  0.9977315

 Al 
  0.4881961  0.9907195  0.9801619

 Al 
  0.4939112  0.2594080  0.2463418

 Al 
  0.7637840  0.0185696  0.2675288

 Al 
  0.7456029  0.2503589  0.0240087

 Al 
  0.9873818  0.5051978  0.0078919

 Al 
  0.9916922  0.7585082  0.2616380

 Al 
  0.2383496  0.4966945  0.2794478

 Al 
  0.2478306  0.7224816  0.9792201

 Al 
  0.9997810  0.0003379  0.5135018

 Al 
  0.9763304  0.2549342  0.7456958

 Al 
  0.2532040  0.9721548  0.7238961

 Al 
  0.2738070  0.2259826  0.5155797

 Al 
  0.9852631  0.5080182  0.4970336

 Al 
  0.9992067  0.7538562  0.7515630

 Al 
  0.2502834  0.4937540  0.7222662

 Al 
  0.2435077  0.7567732  0.4998206

 Al 
  0.5236845  0.4996943  0.9997092

 Al 
  0.4789837  0.7488466  0.2404906

 Al 
  0.7488429  0.5023118  0.2612457

 Al 
  0.7570281  0.7724197  0.0145983

 Al 
  0.4995805  0.9830875  0.4920598

 Al 
  0.5274046  0.2368422  0.7382320

 Al 
  0.7548797  0.9899225  0.7491288

 Al 
  0.7488206  0.2604859  0.5007215

 Al 
  0.5132407  0.4971870  0.5016719

 Al 
  0.5035592  0.7330380  0.7360749

 Al 
  0.7537176  0.5041335  0.7524306

 Al 
  0.7485904  0.7442676  0.5045208

