32 
charge = 0 
 Al 
  0.9866616  0.0238986  0.9952700

 Al 
  0.0170487  0.2629895  0.2613633

 Al 
  0.2494802  0.9935684  0.2421279

 Al 
  0.2476858  0.2797126  0.9993664

 Al 
  0.4911576  0.9912975  0.9798525

 Al 
  0.4940337  0.2593485  0.2479679

 Al 
  0.7631256  0.0186228  0.2672529

 Al 
  0.7462539  0.2503082  0.0220917

 Al 
  0.9886850  0.5064489  0.0071234

 Al 
  0.9904176  0.7573783  0.2601455

 Al 
  0.2393075  0.4946748  0.2779083

 Al 
  0.2482897  0.7240112  0.9786867

 Al 
  0.9982055  0.0003589  0.5129189

 Al 
  0.9774293  0.2546879  0.7477798

 Al 
  0.2539961  0.9709396  0.7252834

 Al 
  0.2757079  0.2274108  0.5158321

 Al 
  0.9831060  0.5096134  0.4975657

 Al 
  0.9994357  0.7543513  0.7503329

 Al 
  0.2492909  0.4915957  0.7211450

 Al 
  0.2433493  0.7570120  0.5002240

 Al 
  0.5228157  0.4973269  0.0000000

 Al 
  0.4793352  0.7488887  0.2437330

 Al 
  0.7502710  0.5026768  0.2600329

 Al 
  0.7570813  0.7718888  0.0133422

 Al 
  0.5004913  0.9826543  0.4935572

 Al 
  0.5285877  0.2385068  0.7373212

 Al 
  0.7531706  0.9883991  0.7475781

 Al 
  0.7472526  0.2611702  0.4989159

 Al 
  0.5131640  0.4965361  0.5033724

 Al 
  0.5026273  0.7349847  0.7375105

 Al 
  0.7540394  0.5046508  0.7516596

 Al 
  0.7484964  0.7440882  0.5027350

