32 
charge = 0 
 Al 
  0.9877964  0.0251287  0.0029083

 Al 
  0.0095626  0.2698121  0.2598856

 Al 
  0.2461574  0.9885686  0.2514331

 Al 
  0.2445188  0.2719779  0.0063388

 Al 
  0.5055950  0.9953740  0.9807547

 Al 
  0.4950522  0.2570417  0.2560888

 Al 
  0.7578610  0.0166415  0.2647493

 Al 
  0.7498441  0.2506411  0.0104784

 Al 
  0.9947131  0.5127518  0.0028043

 Al 
  0.9853992  0.7519454  0.2515383

 Al 
  0.2464036  0.4875637  0.2691934

 Al 
  0.2514034  0.7327867  0.9787337

 Al 
  0.9903322  0.0022363  0.5080739

 Al 
  0.9858398  0.2537189  0.7577014

 Al 
  0.2577942  0.9702849  0.7380662

 Al 
  0.2813066  0.2355304  0.5148532

 Al 
  0.9756299  0.5158606  0.5021274

 Al 
  0.9991325  0.7548884  0.7447267

 Al 
  0.2438679  0.4808797  0.7175016

 Al 
  0.2425053  0.7537931  0.4990038

 Al 
  0.5162863  0.4872197  0.0008069

 Al 
  0.4842879  0.7474976  0.2593832

 Al 
  0.7563079  0.5054119  0.2517635

 Al 
  0.7556544  0.7668098  0.0065232

 Al 
  0.5070145  0.9818982  0.5005421

 Al 
  0.5316160  0.2477736  0.7362928

 Al 
  0.7442540  0.9816680  0.7391961

 Al 
  0.7421972  0.2626343  0.4895339

 Al 
  0.5102817  0.4944681  0.5104908

 Al 
  0.4983714  0.7442342  0.7462725

 Al 
  0.7556569  0.5078301  0.7491758

 Al 
  0.7473553  0.7451302  0.4930585

