32 
charge = 0 
 Al 
  0.9875749  0.0251918  0.0024590

 Al 
  0.0101059  0.2695758  0.2599302

 Al 
  0.2463764  0.9887518  0.2509616

 Al 
  0.2446550  0.2725360  0.0060294

 Al 
  0.5048364  0.9950757  0.9805418

 Al 
  0.4949545  0.2572806  0.2556841

 Al 
  0.7582533  0.0168630  0.2649733

 Al 
  0.7496423  0.2505804  0.0111987

 Al 
  0.9944000  0.5124202  0.0030890

 Al 
  0.9855725  0.7522053  0.2520445

 Al 
  0.2459136  0.4877667  0.2696983

 Al 
  0.2511918  0.7322719  0.9785815

 Al 
  0.9907269  0.0020457  0.5084179

 Al 
  0.9852730  0.2537585  0.7572286

 Al 
  0.2576271  0.9700250  0.7371368

 Al 
  0.2812138  0.2351096  0.5150302

 Al 
  0.9758316  0.5156490  0.5018205

 Al 
  0.9992203  0.7549317  0.7449829

 Al 
  0.2441859  0.4814130  0.7175437

 Al 
  0.2425635  0.7541731  0.4992055

 Al 
  0.5167603  0.4876652  0.0007970

 Al 
  0.4838548  0.7476585  0.2585924

 Al 
  0.7560764  0.5052473  0.2523328

 Al 
  0.7558215  0.7672120  0.0069403

 Al 
  0.5066086  0.9818450  0.5001906

 Al 
  0.5315875  0.2472378  0.7361430

 Al 
  0.7447082  0.9819687  0.7396614

 Al 
  0.7422937  0.2626479  0.4900339

 Al 
  0.5105552  0.4944780  0.5101864

 Al 
  0.4985595  0.7438171  0.7457341

 Al 
  0.7555777  0.5076333  0.7492166

 Al 
  0.7474766  0.7449656  0.4936129

