32 
charge = 0 
 Al 
  0.9885439  0.0248107  0.0041731

 Al 
  0.0079328  0.2703455  0.2597978

 Al 
  0.2455274  0.9881404  0.2527140

 Al 
  0.2441822  0.2702911  0.0071246

 Al 
  0.5076729  0.9962811  0.9815294

 Al 
  0.4953814  0.2562658  0.2571469

 Al 
  0.7566742  0.0159225  0.2640228

 Al 
  0.7504084  0.2508576  0.0084142

 Al 
  0.9955807  0.5136466  0.0019529

 Al 
  0.9850354  0.7512772  0.2501126

 Al 
  0.2478417  0.4871863  0.2677739

 Al 
  0.2520209  0.7342359  0.9793092

 Al 
  0.9892963  0.0028390  0.5070652

 Al 
  0.9874882  0.2536162  0.7589216

 Al 
  0.2581902  0.9712886  0.7408024

 Al 
  0.2813574  0.2366195  0.5142406

 Al 
  0.9752710  0.5163024  0.5029961

 Al 
  0.9988305  0.7547324  0.7440770

 Al 
  0.2429657  0.4794825  0.7175759

 Al 
  0.2423271  0.7525816  0.4983590

 Al 
  0.5148569  0.4860935  0.0008032

 Al 
  0.4856368  0.7469791  0.2614932

 Al 
  0.7568313  0.5058636  0.2500780

 Al 
  0.7551062  0.7655846  0.0053079

 Al 
  0.5081370  0.9821519  0.5014913

 Al 
  0.5315727  0.2492686  0.7369016

 Al 
  0.7430697  0.9809143  0.7379214

 Al 
  0.7421118  0.2625155  0.4881850

 Al 
  0.5094315  0.4945659  0.5112457

 Al 
  0.4979048  0.7452651  0.7478058

 Al 
  0.7558549  0.5083919  0.7491585

 Al 
  0.7469581  0.7456846  0.4914992

