32 
charge = 0 
 Al 
  0.9903804  0.0235892  0.0064452

 Al 
  0.0046161  0.2707675  0.2598027

 Al 
  0.2443765  0.9877642  0.2548030

 Al 
  0.2438010  0.2667380  0.0081741

 Al 
  0.5111418  0.9982303  0.9837137

 Al 
  0.4962056  0.2544280  0.2586407

 Al 
  0.7541805  0.0142221  0.2622432

 Al 
  0.7513935  0.2514430  0.0045938

 Al 
  0.9971202  0.5150500  0.0001881

 Al 
  0.9849611  0.7503886  0.2475991

 Al 
  0.2506423  0.4873459  0.2652319

 Al 
  0.2532028  0.7367853  0.9810071

 Al 
  0.9878075  0.0041966  0.5051111

 Al 
  0.9906180  0.2534280  0.7605601

 Al 
  0.2585454  0.9742624  0.7460868

 Al 
  0.2805133  0.2380662  0.5126417

 Al 
  0.9755482  0.5163940  0.5044886

 Al 
  0.9981041  0.7543686  0.7432330

 Al 
  0.2413593  0.4775407  0.7186414

 Al 
  0.2419583  0.7498775  0.4969853

 Al 
  0.5118695  0.4846579  0.0006609

 Al 
  0.4885959  0.7457688  0.2647146

 Al 
  0.7571593  0.5065591  0.2467242

 Al 
  0.7537770  0.7629932  0.0029293

 Al 
  0.5099178  0.9830986  0.5029999

 Al 
  0.5309638  0.2518502  0.7387926

 Al 
  0.7414460  0.9800233  0.7358386

 Al 
  0.7427565  0.2619932  0.4860997

 Al 
  0.5075962  0.4953233  0.5121454

 Al 
  0.4973368  0.7464173  0.7505854

 Al 
  0.7560715  0.5094203  0.7495644

 Al 
  0.7460336  0.7470113  0.4887530

