32 
charge = 0 
 Al 
  0.9897171  0.0240867  0.0057163

 Al 
  0.0057386  0.2707118  0.2597780

 Al 
  0.2447465  0.9878261  0.2541619

 Al 
  0.2438877  0.2679645  0.0078919

 Al 
  0.5100651  0.9975533  0.9828833

 Al 
  0.4959024  0.2550876  0.2582261

 Al 
  0.7550381  0.0148322  0.2628942

 Al 
  0.7510792  0.2512239  0.0058376

 Al 
  0.9966227  0.5146329  0.0007945

 Al 
  0.9848931  0.7506237  0.2483974

 Al 
  0.2497116  0.4871665  0.2660499

 Al 
  0.2528130  0.7359759  0.9803549

 Al 
  0.9882246  0.0037201  0.5057584

 Al 
  0.9895884  0.2534936  0.7601233

 Al 
  0.2584909  0.9731251  0.7443419

 Al 
  0.2809316  0.2376875  0.5132320

 Al 
  0.9753205  0.5164744  0.5040283

 Al 
  0.9983615  0.7544911  0.7434533

 Al 
  0.2418705  0.4780704  0.7181464

 Al 
  0.2420833  0.7508193  0.4974494

 Al 
  0.5128966  0.4850280  0.0007264

 Al 
  0.4875637  0.7461982  0.2637716

 Al 
  0.7571519  0.5063574  0.2478504

 Al 
  0.7542585  0.7638855  0.0037275

 Al 
  0.5093943  0.9827150  0.5025444

 Al 
  0.5312423  0.2510396  0.7380649

 Al 
  0.7418828  0.9802337  0.7364710

 Al 
  0.7424286  0.2622061  0.4867123

 Al 
  0.5082298  0.4949879  0.5119276

 Al 
  0.4974791  0.7461586  0.7496894

 Al 
  0.7560269  0.5090874  0.7493676

 Al 
  0.7463591  0.7465398  0.4896268

