32 
charge = 0 
 Al 
  0.9907331  0.0233033  0.0068029

 Al 
  0.0040444  0.2707663  0.2598238

 Al 
  0.2441958  0.9877556  0.2551074

 Al 
  0.2437726  0.2661019  0.0082929

 Al 
  0.5116566  0.9985818  0.9841691

 Al 
  0.4963690  0.2540778  0.2588176

 Al 
  0.7537374  0.0138991  0.2618917

 Al 
  0.7515482  0.2515618  0.0039775

 Al 
  0.9973677  0.5152406  0.9998750

 Al 
  0.9850292  0.7502921  0.2472105

 Al 
  0.2511113  0.4874796  0.2648285

 Al 
  0.2533983  0.7371789  0.9813697

 Al 
  0.9876269  0.0044453  0.5047869

 Al 
  0.9911316  0.2533922  0.7607408

 Al 
  0.2585503  0.9748886  0.7469593

 Al 
  0.2802535  0.2382184  0.5123224

 Al 
  0.9757116  0.5163135  0.5047065

 Al 
  0.9979704  0.7543092  0.7431427

 Al 
  0.2411118  0.4773180  0.7189446

 Al 
  0.2418940  0.7493899  0.4967539

 Al 
  0.5113385  0.4845119  0.0006225

 Al 
  0.4891330  0.7455448  0.2651416

 Al 
  0.7571246  0.5066494  0.2461524

 Al 
  0.7535196  0.7625328  0.0025246

 Al 
  0.5101517  0.9833177  0.5032139

 Al 
  0.5307955  0.2522412  0.7391924

 Al 
  0.7412653  0.9799502  0.7355428

 Al 
  0.7429595  0.2618744  0.4858237

 Al 
  0.5072707  0.4955225  0.5122246

 Al 
  0.4972811  0.7465014  0.7510247

 Al 
  0.7560826  0.5095837  0.7496844

 Al 
  0.7458653  0.7472588  0.4883285

