32 
charge = 0 
 Al 
  0.9882815  0.0249381  0.0037634

 Al 
  0.0084761  0.2701945  0.2598188

 Al 
  0.2457329  0.9882642  0.2523081

 Al 
  0.2442825  0.2708554  0.0068846

 Al 
  0.5070108  0.9959754  0.9812485

 Al 
  0.4952663  0.2565343  0.2568190

 Al 
  0.7570727  0.0161712  0.2642753

 Al 
  0.7502265  0.2507797  0.0090874

 Al 
  0.9953010  0.5133644  0.0022375

 Al 
  0.9851307  0.7514814  0.2505730

 Al 
  0.2473665  0.4872754  0.2682330

 Al 
  0.2518180  0.7337681  0.9790976

 Al 
  0.9896181  0.0026323  0.5073981

 Al 
  0.9869474  0.2536483  0.7585478

 Al 
  0.2580751  0.9709173  0.7398990

 Al 
  0.2813772  0.2362853  0.5144584

 Al 
  0.9753502  0.5161861  0.5027152

 Al 
  0.9989369  0.7547881  0.7442750

 Al 
  0.2432578  0.4799144  0.7175177

 Al 
  0.2423865  0.7529961  0.4985793

 Al 
  0.5153359  0.4864351  0.0008094

 Al 
  0.4851790  0.7471586  0.2608311

 Al 
  0.7566853  0.5057213  0.2506373

 Al 
  0.7552968  0.7659967  0.0057089

 Al 
  0.5077793  0.9820516  0.5011918

 Al 
  0.5316073  0.2487872  0.7366715

 Al 
  0.7434360  0.9811408  0.7383273

 Al 
  0.7421068  0.2625674  0.4886107

 Al 
  0.5097198  0.4945126  0.5110193

 Al 
  0.4980459  0.7449569  0.7473071

 Al 
  0.7557955  0.5082088  0.7491461

 Al 
  0.7470954  0.7454903  0.4920016

