32 
charge = 0 
 Al 
  0.9940882  0.0200398  0.0095985

 Al 
  0.9991473  0.2701042  0.2601035

 Al 
  0.2428419  0.9881998  0.2572793

 Al 
  0.2439186  0.2602272  0.0087966

 Al 
  0.5154138  0.0018106  0.9889597

 Al 
  0.4980211  0.2507190  0.2595824

 Al 
  0.7497475  0.0107693  0.2582991

 Al 
  0.7527944  0.2527709  0.9990174

 Al 
  0.9994468  0.5163829  0.9970175

 Al 
  0.9864153  0.7499864  0.2442750

 Al 
  0.2550059  0.4895946  0.2615526

 Al 
  0.2549985  0.7402035  0.9852668

 Al 
  0.9868274  0.0067101  0.5020779

 Al 
  0.9953332  0.2529355  0.7612952

 Al 
  0.2580293  0.9814452  0.7540976

 Al 
  0.2768650  0.2386008  0.5091530

 Al 
  0.9781211  0.5147159  0.5060900

 Al 
  0.9968207  0.7539367  0.7428655

 Al 
  0.2393174  0.4765333  0.7228417

 Al 
  0.2413321  0.7450807  0.4949396

 Al 
  0.5065009  0.4842038  0.0001634

 Al 
  0.4940065  0.7435040  0.2675499

 Al 
  0.7559329  0.5071061  0.2412950

 Al 
  0.7509678  0.7584068  0.9990013

 Al 
  0.5112928  0.9858188  0.5046545

 Al 
  0.5286991  0.2550889  0.7432590

 Al 
  0.7407232  0.9801817  0.7336766

 Al 
  0.7454854  0.2606257  0.4843374

 Al 
  0.5044131  0.4978417  0.5122098

 Al 
  0.4971326  0.7461648  0.7544763

 Al 
  0.7558821  0.5108460  0.7511472

 Al 
  0.7444780  0.7494394  0.4851195

