32 
charge = 0 
 Al 
  0.9927169  0.0214816  0.0085590

 Al 
  0.0010556  0.2704866  0.2599822

 Al 
  0.2433295  0.9879276  0.2565108

 Al 
  0.2437837  0.2626145  0.0086939

 Al 
  0.5140674  0.0005074  0.9869140

 Al 
  0.4973244  0.2521001  0.2594302

 Al 
  0.7513452  0.0120638  0.2598225

 Al 
  0.7523155  0.2522635  0.0008960

 Al 
  0.9986337  0.5160363  0.9981709

 Al 
  0.9857198  0.7500087  0.2453455

 Al 
  0.2535073  0.4885897  0.2628063

 Al 
  0.2543859  0.7390847  0.9835813

 Al 
  0.9869920  0.0058029  0.5031236

 Al 
  0.9937317  0.2531533  0.7612730

 Al 
  0.2583399  0.9786508  0.7513749

 Al 
  0.2784157  0.2386268  0.5104735

 Al 
  0.9769925  0.5155128  0.5056507

 Al 
  0.9972625  0.7540468  0.7428815

 Al 
  0.2399473  0.4766163  0.7210571

 Al 
  0.2415524  0.7467811  0.4956017

 Al 
  0.5084526  0.4841394  0.0003638

 Al 
  0.4920524  0.7443171  0.2668581

 Al 
  0.7565727  0.5069910  0.2431835

 Al 
  0.7520358  0.7600527  0.0003911

 Al 
  0.5110304  0.9847161  0.5041619

 Al 
  0.5296508  0.2540741  0.7415561

 Al 
  0.7407368  0.9799181  0.7342693

 Al 
  0.7443617  0.2611517  0.4847384

 Al 
  0.5055381  0.4968244  0.5123509

 Al 
  0.4971338  0.7464940  0.7531880

 Al 
  0.7560220  0.5103831  0.7505000

 Al 
  0.7449941  0.7485855  0.4862878

