32 
charge = 0 
 Al 
  0.9945721  0.0195003  0.0099413

 Al 
  0.9984964  0.2699421  0.2601443

 Al 
  0.2426885  0.9883186  0.2575256

 Al 
  0.2439867  0.2593807  0.0088102

 Al 
  0.5158458  0.0022685  0.9897072

 Al 
  0.4982748  0.2502277  0.2595985

 Al 
  0.7491882  0.0103052  0.2577410

 Al 
  0.7529590  0.2529541  0.9983862

 Al 
  0.9997290  0.5164757  0.9966103

 Al 
  0.9866925  0.7500025  0.2439260

 Al 
  0.2555133  0.4899832  0.2611244

 Al 
  0.2552064  0.7405760  0.9858905

 Al 
  0.9868101  0.0070269  0.5017202

 Al 
  0.9958727  0.2528476  0.7612532

 Al 
  0.2578969  0.9824662  0.7550158

 Al 
  0.2762722  0.2385501  0.5086803

 Al 
  0.9785530  0.5143990  0.5062126

 Al 
  0.9966734  0.7539119  0.7428815

 Al 
  0.2391231  0.4765643  0.7235248

 Al 
  0.2412579  0.7444966  0.4947292

 Al 
  0.5058128  0.4842731  0.0000891

 Al 
  0.4946884  0.7432231  0.2677207

 Al 
  0.7556680  0.5071296  0.2406502

 Al 
  0.7505817  0.7578338  0.9985186

 Al 
  0.5113299  0.9862321  0.5048067

 Al 
  0.5283365  0.2554106  0.7438691

 Al 
  0.7407703  0.9803215  0.7335120

 Al 
  0.7459012  0.2604376  0.4842508

 Al 
  0.5040270  0.4982154  0.5121281

 Al 
  0.4971437  0.7460051  0.7549032

 Al 
  0.7558165  0.5109957  0.7513861

 Al 
  0.7443134  0.7497290  0.4847421

