32 
charge = 0 
 Al 
  0.9950683  0.0189298  0.0102792

 Al 
  0.9978405  0.2697626  0.2601839

 Al 
  0.2425387  0.9884498  0.2577669

 Al 
  0.2440671  0.2585095  0.0088152

 Al 
  0.5162702  0.0027375  0.9904856

 Al 
  0.4985372  0.2497228  0.2595973

 Al 
  0.7486189  0.0098250  0.2571605

 Al 
  0.7531273  0.2531434  0.9977551

 Al 
  0.0000186  0.5165549  0.9961933

 Al 
  0.9869920  0.7500297  0.2435832

 Al 
  0.2560245  0.4903953  0.2606901

 Al 
  0.2554156  0.7409460  0.9865452

 Al 
  0.9868113  0.0073486  0.5013588

 Al 
  0.9964135  0.2527486  0.7611839

 Al 
  0.2577496  0.9835280  0.7559366

 Al 
  0.2756423  0.2384795  0.5081914

 Al 
  0.9790109  0.5140587  0.5063202

 Al 
  0.9965286  0.7538946  0.7429100

 Al 
  0.2389374  0.4766249  0.7242513

 Al 
  0.2411811  0.7439062  0.4945238

 Al 
  0.5051062  0.4843646  0.0000124

 Al 
  0.4953814  0.7429397  0.2678593

 Al 
  0.7553772  0.5071432  0.2399993

 Al 
  0.7501819  0.7572509  0.9980298

 Al 
  0.5113410  0.9866665  0.5049527

 Al 
  0.5279491  0.2557237  0.7444966

 Al 
  0.7408420  0.9804861  0.7333647

 Al 
  0.7463343  0.2602445  0.4841889

 Al 
  0.5036360  0.4986040  0.5120279

 Al 
  0.4971586  0.7458220  0.7553289

 Al 
  0.7557411  0.5111418  0.7516336

 Al 
  0.7441562  0.7500186  0.4843721

