32 
charge = 0 
 Al 
  0.9996225  0.0128570  0.0129041

 Al 
  0.9922392  0.2675969  0.2602780

 Al 
  0.2415945  0.9900871  0.2596121

 Al 
  0.2452651  0.2501980  0.0085751

 Al 
  0.5194310  0.0070380  0.9982266

 Al 
  0.5011361  0.2449854  0.2588783

 Al 
  0.7434347  0.0051520  0.2513230

 Al 
  0.7547795  0.2549824  0.9924150

 Al 
  0.0027523  0.5166130  0.9923209

 Al 
  0.9903792  0.7506015  0.2409509

 Al 
  0.2603596  0.4947243  0.2567064

 Al 
  0.2572237  0.7441241  0.9933691

 Al 
  0.9876083  0.0102099  0.4981461

 Al 
  0.0009641  0.2514170  0.7595379

 Al 
  0.2560084  0.9941364  0.7638236

 Al 
  0.2687949  0.2372296  0.5034998

 Al 
  0.9838300  0.5102346  0.5065541

 Al 
  0.9954458  0.7541434  0.7435870

 Al 
  0.2379152  0.4784120  0.7321952

 Al 
  0.2405326  0.7388112  0.4931588

 Al 
  0.4984134  0.4861220  0.9993094

 Al 
  0.5016002  0.7405388  0.2675709

 Al 
  0.7519417  0.5068907  0.2343708

 Al 
  0.7462316  0.7519813  0.9936105

 Al 
  0.5102371  0.9912381  0.5059836

 Al 
  0.5236424  0.2579006  0.7504047

 Al 
  0.7424954  0.9830305  0.7329909

 Al 
  0.7504901  0.2583907  0.4847916

 Al 
  0.5002141  0.5023291  0.5104475

 Al 
  0.4973863  0.7435040  0.7588077

 Al 
  0.7546842  0.5121702  0.7539751

 Al 
  0.7433481  0.7523489  0.4816779

