32 
charge = 0 
 Al 
  0.9966041  0.0170610  0.0112606

 Al 
  0.9958690  0.2691364  0.2602829

 Al 
  0.2421328  0.9889164  0.2584526

 Al 
  0.2443765  0.2557819  0.0087817

 Al 
  0.5174744  0.0041842  0.9929744

 Al 
  0.4993750  0.2481474  0.2594896

 Al 
  0.7468628  0.0083102  0.2552992

 Al 
  0.7536533  0.2537412  0.9958740

 Al 
  0.0009146  0.5167096  0.9948988

 Al 
  0.9880080  0.7501658  0.2426006

 Al 
  0.2575504  0.4917529  0.2593634

 Al 
  0.2560443  0.7420462  0.9886714

 Al 
  0.9869276  0.0083300  0.5002624

 Al 
  0.9980211  0.2523947  0.7608287

 Al 
  0.2572373  0.9869239  0.7586902

 Al 
  0.2735558  0.2381627  0.5066556

 Al 
  0.9805109  0.5129065  0.5065541

 Al 
  0.9961103  0.7538897  0.7430560

 Al 
  0.2384548  0.4769838  0.7266645

 Al 
  0.2409522  0.7421266  0.4939607

 Al 
  0.5029033  0.4847805  0.9997711

 Al 
  0.4975075  0.7420895  0.2680746

 Al 
  0.7543723  0.5071345  0.2380427

 Al 
  0.7489085  0.7554614  0.9965299

 Al 
  0.5112111  0.9880860  0.5053562

 Al 
  0.5266608  0.2565937  0.7464606

 Al 
  0.7412071  0.9811346  0.7330429

 Al 
  0.7477080  0.2596381  0.4841555

 Al 
  0.5024528  0.4998342  0.5116257

 Al 
  0.4972266  0.7451537  0.7565801

 Al 
  0.7554601  0.5115514  0.7524157

 Al 
  0.7437466  0.7508700  0.4833238

