32 
charge = 0 
 Al 
  0.9991448  0.0135773  0.0126702

 Al 
  0.9927912  0.2678692  0.2603052

 Al 
  0.2416539  0.9898780  0.2594426

 Al 
  0.2450980  0.2511076  0.0086147

 Al 
  0.5191575  0.0065838  0.9973603

 Al 
  0.5008453  0.2454916  0.2590095

 Al 
  0.7439743  0.0056717  0.2519838

 Al 
  0.7545864  0.2547795  0.9929447

 Al 
  0.0024491  0.5166675  0.9927318

 Al 
  0.9899696  0.7505223  0.2411886

 Al 
  0.2599314  0.4942292  0.2571407

 Al 
  0.2570405  0.7437961  0.9925709

 Al 
  0.9874598  0.0099166  0.4984815

 Al 
  0.0005136  0.2516026  0.7597965

 Al 
  0.2562200  0.9929409  0.7630266

 Al 
  0.2696154  0.2373979  0.5040147

 Al 
  0.9832694  0.5106950  0.5065987

 Al 
  0.9955349  0.7540753  0.7434805

 Al 
  0.2379598  0.4781187  0.7312410

 Al 
  0.2405958  0.7393211  0.4932565

 Al 
  0.4991448  0.4858621  0.9993800

 Al 
  0.5009603  0.7407715  0.2677392

 Al 
  0.7523687  0.5069514  0.2349413

 Al 
  0.7466734  0.7525308  0.9940721

 Al 
  0.5104586  0.9907022  0.5058957

 Al 
  0.5241721  0.2577311  0.7497723

 Al 
  0.7422417  0.9826704  0.7329427

 Al 
  0.7500483  0.2585961  0.4846245

 Al 
  0.5005619  0.5019294  0.5106703

 Al 
  0.4973628  0.7437899  0.7584736

 Al 
  0.7548290  0.5120897  0.7537300

 Al 
  0.7433679  0.7521336  0.4818994

