32 
charge = 0 
 Al 
  0.0036162  0.0053624  0.0142023

 Al 
  0.9881813  0.2645847  0.2589872

 Al 
  0.2418222  0.9923667  0.2607866

 Al 
  0.2473355  0.2418395  0.0083845

 Al 
  0.5207651  0.0109240  0.0061606

 Al 
  0.5038897  0.2406515  0.2570393

 Al 
  0.7391156  0.0002277  0.2450163

 Al 
  0.7569378  0.2568573  0.9882518

 Al 
  0.0056990  0.5151168  0.9889053

 Al 
  0.9946909  0.7512165  0.2394176

 Al 
  0.2634832  0.4993156  0.2524219

 Al 
  0.2587285  0.7472563  0.0015742

 Al 
  0.9898198  0.0124895  0.4951562

 Al 
  0.0045258  0.2490100  0.7561556

 Al 
  0.2539676  0.0055517  0.7704718

 Al 
  0.2600787  0.2357099  0.4987018

 Al 
  0.9894832  0.5054242  0.5050827

 Al 
  0.9951698  0.7554453  0.7449198

 Al 
  0.2386590  0.4825343  0.7423321

 Al 
  0.2400834  0.7349017  0.4930226

 Al 
  0.4916279  0.4893656  0.9988713

 Al 
  0.5067447  0.7389560  0.2639572

 Al 
  0.7473912  0.5057955  0.2296978

 Al 
  0.7420610  0.7473145  0.9897740

 Al 
  0.5067930  0.9966697  0.5066098

 Al 
  0.5175920  0.2584798  0.7559205

 Al 
  0.7456760  0.9876541  0.7348176

 Al 
  0.7539850  0.2564130  0.4878112

 Al 
  0.4974432  0.5056680  0.5077682

 Al 
  0.4973454  0.7408594  0.7611789

 Al 
  0.7529219  0.5123558  0.7557510

 Al 
  0.7443666  0.7536817  0.4808524

