32 
charge = 0 
 Al 
  0.0027635  0.0072942  0.0140748

 Al 
  0.9889213  0.2653953  0.2595342

 Al 
  0.2416056  0.9917665  0.2605873

 Al 
  0.2467452  0.2437986  0.0083622

 Al 
  0.5207131  0.0100700  0.0043364

 Al 
  0.5032239  0.2415908  0.2575825

 Al 
  0.7399708  0.0014121  0.2465286

 Al 
  0.7563400  0.2564229  0.9890958

 Al 
  0.0049676  0.5156725  0.9896193

 Al 
  0.9935696  0.7511249  0.2396503

 Al 
  0.2629325  0.4982513  0.2535085

 Al 
  0.2584092  0.7464705  0.9994678

 Al 
  0.9891255  0.0120514  0.4958505

 Al 
  0.0037968  0.2497191  0.7571395

 Al 
  0.2544453  0.0028043  0.7690325

 Al 
  0.2623731  0.2360193  0.4998428

 Al 
  0.9880501  0.5066717  0.5056371

 Al 
  0.9951116  0.7550022  0.7445436

 Al 
  0.2382407  0.4812782  0.7396738

 Al 
  0.2401601  0.7356529  0.4928976

 Al 
  0.4932367  0.4884449  0.9989320

 Al 
  0.5056965  0.7392023  0.2652208

 Al 
  0.7485743  0.5061680  0.2306854

 Al 
  0.7430548  0.7483380  0.9905834

 Al 
  0.5078808  0.9953010  0.5064811

 Al 
  0.5192701  0.2585367  0.7546904

 Al 
  0.7447800  0.9862952  0.7341023

 Al 
  0.7533068  0.2568895  0.4868039

 Al 
  0.4979989  0.5049676  0.5085120

 Al 
  0.4974271  0.7414559  0.7607705

 Al 
  0.7534231  0.5124338  0.7554552

 Al 
  0.7438852  0.7535023  0.4807967

