32 
charge = 0 
 Al 
  0.0024417  0.0079575  0.0139968

 Al 
  0.9892258  0.2656663  0.2596827

 Al 
  0.2415586  0.9915623  0.2605020

 Al 
  0.2465522  0.2445027  0.0083709

 Al 
  0.5206438  0.0097532  0.0036694

 Al 
  0.5029887  0.2419435  0.2577595

 Al 
  0.7403111  0.0018316  0.2470682

 Al 
  0.7561433  0.2562645  0.9894213

 Al 
  0.0047126  0.5158346  0.9898928

 Al 
  0.9931872  0.7510779  0.2397555

 Al 
  0.2626999  0.4978640  0.2538810

 Al 
  0.2582892  0.7462007  0.9987451

 Al 
  0.9889077  0.0118744  0.4960992

 Al 
  0.0035172  0.2499468  0.7574600

 Al 
  0.2546186  0.0018291  0.7684941

 Al 
  0.2631491  0.2361443  0.5002500

 Al 
  0.9875563  0.5070974  0.5057992

 Al 
  0.9951141  0.7548673  0.7444186

 Al 
  0.2381367  0.4808809  0.7387704

 Al 
  0.2401936  0.7359549  0.4928815

 Al 
  0.4938109  0.4881417  0.9989604

 Al 
  0.5052906  0.7393149  0.2655995

 Al 
  0.7489802  0.5062794  0.2310603

 Al 
  0.7434100  0.7487179  0.9908928

 Al 
  0.5082211  0.9948258  0.5064341

 Al 
  0.5198233  0.2585219  0.7542374

 Al 
  0.7444829  0.9858584  0.7338981

 Al 
  0.7530345  0.2570591  0.4864957

 Al 
  0.4982167  0.5046978  0.5087595

 Al 
  0.4974420  0.7416774  0.7605960

 Al 
  0.7535865  0.5124375  0.7553240

 Al 
  0.7437553  0.7534132  0.4808215

