32 
charge = 0 
 Al 
  0.0005272  0.0114215  0.0133149

 Al 
  0.9912220  0.2670449  0.2601814

 Al 
  0.2415177  0.9905104  0.2599203

 Al 
  0.2456166  0.2484407  0.0084983

 Al 
  0.5199050  0.0079006  0.9999059

 Al 
  0.5017004  0.2440201  0.2585874

 Al 
  0.7424162  0.0041396  0.2500297

 Al 
  0.7551668  0.2553772  0.9914286

 Al 
  0.0033427  0.5164596  0.9915413

 Al 
  0.9911997  0.7507562  0.2405252

 Al 
  0.2611504  0.4956896  0.2558599

 Al 
  0.2575677  0.7447577  0.9949520

 Al 
  0.9879362  0.0107581  0.4975063

 Al 
  0.0018019  0.2510247  0.7589835

 Al 
  0.2555888  0.9964742  0.7653235

 Al 
  0.2671526  0.2368942  0.5025024

 Al 
  0.9849376  0.5093151  0.5064130

 Al 
  0.9952973  0.7543067  0.7438122

 Al 
  0.2378843  0.4790505  0.7341072

 Al 
  0.2404163  0.7378632  0.4930078

 Al 
  0.4969989  0.4866715  0.9991844

 Al 
  0.5028031  0.7401131  0.2671415

 Al 
  0.7510829  0.5067484  0.2333003

 Al 
  0.7453715  0.7509405  0.9927380

 Al 
  0.5097371  0.9923011  0.5061383

 Al 
  0.5225632  0.2581778  0.7516138

 Al 
  0.7430350  0.9837916  0.7331506

 Al 
  0.7513230  0.2579885  0.4851889

 Al 
  0.4995607  0.5030877  0.5099822

 Al 
  0.4974246  0.7429447  0.7594191

 Al 
  0.7543834  0.5122989  0.7544317

 Al 
  0.7433691  0.7527338  0.4813103

