32 
charge = 0 
 Al 
  0.0013539  0.0100082  0.0136466

 Al 
  0.9903284  0.2664905  0.2600280

 Al 
  0.2414942  0.9909361  0.2601839

 Al 
  0.2459829  0.2467823  0.0084328

 Al 
  0.5202787  0.0086964  0.0014950

 Al 
  0.5022388  0.2431278  0.2582706

 Al 
  0.7414942  0.0031743  0.2487946

 Al 
  0.7555567  0.2557510  0.9905475

 Al 
  0.0039095  0.5162492  0.9908272

 Al 
  0.9920091  0.7508997  0.2401676

 Al 
  0.2618459  0.4966054  0.2550443

 Al 
  0.2578808  0.7453567  0.9965039

 Al 
  0.9883013  0.0112507  0.4969098

 Al 
  0.0025531  0.2506089  0.7583931

 Al 
  0.2551829  0.9987080  0.7666910

 Al 
  0.2655289  0.2365737  0.5015581

 Al 
  0.9860155  0.5084105  0.5062089

 Al 
  0.9951908  0.7545072  0.7440498

 Al 
  0.2379301  0.4797485  0.7359995

 Al 
  0.2403148  0.7370180  0.4929150

 Al 
  0.4956599  0.4872469  0.9990793

 Al 
  0.5038897  0.7397468  0.2665994

 Al 
  0.7502289  0.5065801  0.2323288

 Al 
  0.7445510  0.7499851  0.9919385

 Al 
  0.5091716  0.9933382  0.5062707

 Al 
  0.5214717  0.2583733  0.7527350

 Al 
  0.7436018  0.9845936  0.7333931

 Al 
  0.7520766  0.2576011  0.4856628

 Al 
  0.4989716  0.5037845  0.5094983

 Al 
  0.4974469  0.7424088  0.7599512

 Al 
  0.7540703  0.5123868  0.7548339

 Al 
  0.7434694  0.7530531  0.4810418

