32 
charge = 0 
 Al 
  0.0040988  0.0041112  0.0141986

 Al 
  0.9878236  0.2640426  0.2585305

 Al 
  0.2420301  0.9927590  0.2608745

 Al 
  0.2477390  0.2406490  0.0084439

 Al 
  0.5206685  0.0114190  0.0072373

 Al 
  0.5043030  0.2401205  0.2566667

 Al 
  0.7386800  0.9994901  0.2440882

 Al 
  0.7573437  0.2571123  0.9877853

 Al 
  0.0061655  0.5146899  0.9885154

 Al 
  0.9954210  0.7512338  0.2393285

 Al 
  0.2637295  0.4999505  0.2517165

 Al 
  0.2589092  0.7477724  0.0029380

 Al 
  0.9903247  0.0127061  0.4947317

 Al 
  0.0049292  0.2485149  0.7554812

 Al 
  0.2536892  0.0072484  0.7712997

 Al 
  0.2585664  0.2355638  0.4979964

 Al 
  0.9904089  0.5046112  0.5046582

 Al 
  0.9952651  0.7557732  0.7451735

 Al 
  0.2390241  0.4834278  0.7440758

 Al 
  0.2400500  0.7345206  0.4931699

 Al 
  0.4906391  0.4899906  0.9988528

 Al 
  0.5073115  0.7388681  0.2630080

 Al 
  0.7466264  0.5055171  0.2291409

 Al 
  0.7414546  0.7467180  0.9893248

 Al 
  0.5060108  0.9975422  0.5066903

 Al 
  0.5164447  0.2583647  0.7566432

 Al 
  0.7462786  0.9886095  0.7353807

 Al 
  0.7543240  0.2561185  0.4885550

 Al 
  0.4971474  0.5060542  0.5072719

 Al 
  0.4972538  0.7405190  0.7613596

 Al 
  0.7525803  0.5122494  0.7558660

 Al 
  0.7447651  0.7537325  0.4809972

