32 
charge = 0 
 Al 
  0.0054700  0.9991609  0.0134981

 Al 
  0.9873385  0.2616913  0.2558005

 Al 
  0.2434038  0.9943592  0.2609066

 Al 
  0.2494641  0.2366009  0.0091728

 Al 
  0.5191315  0.0129004  0.0105341

 Al 
  0.5058054  0.2386949  0.2551000

 Al 
  0.7380427  0.9967799  0.2409089

 Al 
  0.7591171  0.2578870  0.9865031

 Al 
  0.0079452  0.5124734  0.9875996

 Al 
  0.9983466  0.7508354  0.2394597

 Al 
  0.2637456  0.5019739  0.2488862

 Al 
  0.2594315  0.7499579  0.0083313

 Al 
  0.9927615  0.0129833  0.4931810

 Al 
  0.0060294  0.2463220  0.7525308

 Al 
  0.2528773  0.0132419  0.7737117

 Al 
  0.2523204  0.2355651  0.4954421

 Al 
  0.9941451  0.5013217  0.5024875

 Al 
  0.9961475  0.7573363  0.7462564

 Al 
  0.2412306  0.4876479  0.7511831

 Al 
  0.2400723  0.7338696  0.4943097

 Al 
  0.4871269  0.4926514  0.9989147

 Al 
  0.5086840  0.7391404  0.2582521

 Al 
  0.7436612  0.5040728  0.2276038

 Al 
  0.7393941  0.7448270  0.9881541

 Al 
  0.5022994  0.0008960  0.5070479

 Al 
  0.5113460  0.2573165  0.7589513

 Al 
  0.7487674  0.9930635  0.7384152

 Al 
  0.7548327  0.2550542  0.4922120

 Al 
  0.4964618  0.5069799  0.5051940

 Al 
  0.4965026  0.7396292  0.7613905

 Al 
  0.7511138  0.5113311  0.7556458

 Al 
  0.7469841  0.7534305  0.4824155

