32 
charge = 0 
 Al 
  0.0047114  0.0022635  0.0140661

 Al 
  0.9874722  0.2632085  0.2576902

 Al 
  0.2424373  0.9933469  0.2609450

 Al 
  0.2483602  0.2390092  0.0086147

 Al 
  0.5203171  0.0120638  0.0086555

 Al 
  0.5048884  0.2394560  0.2560938

 Al 
  0.7382283  0.9984431  0.2428048

 Al 
  0.7579761  0.2574489  0.9872061

 Al 
  0.0068425  0.5139609  0.9880538

 Al 
  0.9965076  0.7511794  0.2392877

 Al 
  0.2639189  0.5008007  0.2506683

 Al 
  0.2591394  0.7485545  0.0049540

 Al 
  0.9911514  0.0129239  0.4941327

 Al 
  0.0054292  0.2477377  0.7544292

 Al 
  0.2533266  0.0096245  0.7723640

 Al 
  0.2562856  0.2354438  0.4970026

 Al 
  0.9917851  0.5033996  0.5039379

 Al 
  0.9954965  0.7563103  0.7455633

 Al 
  0.2397060  0.4848720  0.7466883

 Al 
  0.2400265  0.7341146  0.4934892

 Al 
  0.4892530  0.4909534  0.9988515

 Al 
  0.5079848  0.7388496  0.2614153

 Al 
  0.7455039  0.5050443  0.2284429

 Al 
  0.7406180  0.7459284  0.9887741

 Al 
  0.5047399  0.9988132  0.5068115

 Al 
  0.5146527  0.2580813  0.7576048

 Al 
  0.7471907  0.9901416  0.7363608

 Al 
  0.7546718  0.2557027  0.4897889

 Al 
  0.4968034  0.5065145  0.5065195

 Al 
  0.4970509  0.7400945  0.7615007

 Al 
  0.7520519  0.5120031  0.7559143

 Al 
  0.7454755  0.7537114  0.4813710

