32 
charge = 0 
 Al 
  0.0053426  0.9997909  0.0136478

 Al 
  0.9873212  0.2620130  0.2562336

 Al 
  0.2431786  0.9941513  0.2609289

 Al 
  0.2492352  0.2370526  0.0090293

 Al 
  0.5194334  0.0127568  0.0102062

 Al 
  0.5056260  0.2388124  0.2553030

 Al 
  0.7380204  0.9971091  0.2412653

 Al 
  0.7588783  0.2578115  0.9866207

 Al 
  0.0077249  0.5128013  0.9876578

 Al 
  0.9979729  0.7509331  0.2394003

 Al 
  0.2638322  0.5017623  0.2492500

 Al 
  0.2593807  0.7496621  0.0076469

 Al 
  0.9924125  0.0130031  0.4933704

 Al 
  0.0059304  0.2466177  0.7529293

 Al 
  0.2529516  0.0125476  0.7734840

 Al 
  0.2531385  0.2355044  0.4957490

 Al 
  0.9936587  0.5017487  0.5028056

 Al 
  0.9959891  0.7571172  0.7461116

 Al 
  0.2408829  0.4870489  0.7502599

 Al 
  0.2400537  0.7338758  0.4941142

 Al 
  0.4875377  0.4922999  0.9988961

 Al 
  0.5085837  0.7390476  0.2589402

 Al 
  0.7440300  0.5042882  0.2277412

 Al 
  0.7396230  0.7450287  0.9882493

 Al 
  0.5028241  0.0004789  0.5069947

 Al 
  0.5120489  0.2574996  0.7587038

 Al 
  0.7484444  0.9924348  0.7379573

 Al 
  0.7548426  0.2551817  0.4916861

 Al 
  0.4965088  0.5069167  0.5054700

 Al 
  0.4966363  0.7396961  0.7614475

 Al 
  0.7513081  0.5114945  0.7557361

 Al 
  0.7466474  0.7535110  0.4821630

