32 
charge = 0 
 Al 
  0.0059750  0.9952057  0.0121789

 Al 
  0.9878793  0.2594859  0.2525197

 Al 
  0.2451265  0.9957007  0.2606208

 Al 
  0.2509108  0.2342198  0.0104549

 Al 
  0.5165586  0.0134956  0.0119697

 Al 
  0.5068821  0.2384115  0.2538513

 Al 
  0.7388978  0.9948072  0.2390043

 Al 
  0.7606765  0.2581976  0.9860168

 Al 
  0.0092557  0.5101294  0.9876095

 Al 
  0.0007005  0.7498725  0.2400983

 Al 
  0.2626281  0.5029788  0.2466066

 Al 
  0.2596381  0.7519888  0.0125724

 Al 
  0.9951772  0.0124623  0.4920078

 Al 
  0.0064304  0.2444186  0.7499158

 Al 
  0.2526100  0.0171105  0.7746065

 Al 
  0.2470323  0.2364264  0.4935981

 Al 
  0.9973046  0.4985620  0.5002512

 Al 
  0.9974444  0.7588077  0.7472130

 Al 
  0.2437998  0.4918024  0.7570912

 Al 
  0.2403173  0.7343349  0.4958641

 Al 
  0.4847767  0.4948988  0.9990978

 Al 
  0.5088956  0.7401106  0.2534701

 Al 
  0.7414336  0.5024887  0.2271100

 Al 
  0.7381961  0.7437627  0.9878768

 Al 
  0.4986907  0.0034553  0.5074501

 Al 
  0.5065702  0.2558982  0.7602557

 Al 
  0.7508106  0.9974147  0.7417294

 Al 
  0.7543216  0.2542795  0.4958505

 Al 
  0.4963888  0.5070096  0.5033526

 Al 
  0.4954000  0.7395711  0.7606492

 Al 
  0.7498750  0.5099933  0.7546644

 Al 
  0.7493985  0.7526979  0.4844426

