32 
charge = 0 
 Al 
  0.0059230  0.9958876  0.0124511

 Al 
  0.9877370  0.2598906  0.2531521

 Al 
  0.2447923  0.9954656  0.2606864

 Al 
  0.2506621  0.2345725  0.0101864

 Al 
  0.5170821  0.0134313  0.0117964

 Al 
  0.5067026  0.2384053  0.2540617

 Al 
  0.7386639  0.9951364  0.2392914

 Al 
  0.7604017  0.2581642  0.9860725

 Al 
  0.0090404  0.5105675  0.9875613

 Al 
  0.0002958  0.7500817  0.2399559

 Al 
  0.2628905  0.5028452  0.2469977

 Al 
  0.2596146  0.7516163  0.0118497

 Al 
  0.9947354  0.0126009  0.4922095

 Al 
  0.0063858  0.2447478  0.7503799

 Al 
  0.2526323  0.0165054  0.7745174

 Al 
  0.2479605  0.2362160  0.4939075

 Al 
  0.9967452  0.4990483  0.5006646

 Al 
  0.9971845  0.7585441  0.7470422

 Al 
  0.2433122  0.4910400  0.7560603

 Al 
  0.2402591  0.7341951  0.4955572

 Al 
  0.4851530  0.4945089  0.9990582

 Al 
  0.5089055  0.7398965  0.2543451

 Al 
  0.7418061  0.5027895  0.2271521

 Al 
  0.7383731  0.7439236  0.9878880

 Al 
  0.4993478  0.0030221  0.5073709

 Al 
  0.5074378  0.2561730  0.7600589

 Al 
  0.7504579  0.9966177  0.7411056

 Al 
  0.7544614  0.2544119  0.4951859

 Al 
  0.4963777  0.5070479  0.5036842

 Al 
  0.4956215  0.7395352  0.7608225

 Al 
  0.7500903  0.5102619  0.7548834

 Al 
  0.7489493  0.7528489  0.4840429

