32 
charge = 0 
 Al 
  0.0051866  0.9860564  0.0068153

 Al 
  0.9913643  0.2526657  0.2412282

 Al 
  0.2511843  0.9990236  0.2591852

 Al 
  0.2539416  0.2322645  0.0161576

 Al 
  0.5065418  0.0125167  0.0113781

 Al 
  0.5091530  0.2409052  0.2511955

 Al 
  0.7456178  0.9909250  0.2367172

 Al 
  0.7642988  0.2576061  0.9864029

 Al 
  0.0114549  0.5028179  0.9902802

 Al 
  0.0059762  0.7450807  0.2433790

 Al 
  0.2561903  0.5030506  0.2417343

 Al 
  0.2593931  0.7582261  0.0214729

 Al 
  0.0018700  0.0081766  0.4892481

 Al 
  0.0062262  0.2403916  0.7433246

 Al 
  0.2531880  0.0222749  0.7727612

 Al 
  0.2340788  0.2423692  0.4896478

 Al 
  0.0056024  0.4914385  0.4936241

 Al 
  0.0023477  0.7624981  0.7497661

 Al 
  0.2518068  0.5039268  0.7711512

 Al 
  0.2420462  0.7386899  0.5016620

 Al 
  0.4812150  0.5000111  0.0000545

 Al 
  0.5071841  0.7450349  0.2402492

 Al 
  0.7371529  0.4972031  0.2283365

 Al 
  0.7373657  0.7423531  0.9889931

 Al 
  0.4885414  0.0089402  0.5090862

 Al 
  0.4929719  0.2513650  0.7619264

 Al 
  0.7554688  0.0098807  0.7522412

 Al 
  0.7506039  0.2522462  0.5060455

 Al 
  0.4971449  0.5047634  0.4980075

 Al 
  0.4911638  0.7425177  0.7564019

 Al 
  0.7471140  0.5048983  0.7496485

 Al 
  0.7566036  0.7498824  0.4918791

