32 
charge = 0 
 Al 
  0.0054589  0.9871442  0.0076481

 Al 
  0.9907863  0.2536731  0.2429112

 Al 
  0.2502661  0.9986065  0.2594216

 Al 
  0.2536360  0.2321457  0.0152270

 Al 
  0.5080701  0.0128719  0.0117630

 Al 
  0.5089005  0.2403247  0.2515086

 Al 
  0.7444000  0.9913197  0.2368274

 Al 
  0.7638978  0.2578115  0.9862210

 Al 
  0.0113051  0.5038674  0.9897109

 Al 
  0.0053723  0.7458987  0.2428246

 Al 
  0.2573004  0.5032498  0.2422491

 Al 
  0.2594971  0.7573090  0.0205411

 Al 
  0.0009987  0.0090057  0.4895772

 Al 
  0.0063277  0.2407901  0.7441451

 Al 
  0.2530345  0.0220385  0.7733602

 Al 
  0.2356591  0.2412554  0.4901057

 Al 
  0.0045134  0.4923680  0.4945461

 Al 
  0.0015989  0.7620563  0.7494258

 Al 
  0.2507116  0.5022536  0.7694755

 Al 
  0.2417034  0.7378744  0.5007673

 Al 
  0.4814291  0.4994344  0.9998688

 Al 
  0.5075516  0.7441971  0.2419583

 Al 
  0.7375600  0.4979852  0.2279739

 Al 
  0.7372556  0.7424447  0.9887320

 Al 
  0.4899040  0.0083201  0.5088139

 Al 
  0.4948319  0.2519702  0.7618360

 Al 
  0.7549255  0.0082038  0.7507289

 Al 
  0.7512450  0.2525457  0.5046879

 Al 
  0.4970150  0.5052299  0.4987699

 Al 
  0.4918049  0.7418296  0.7571383

 Al 
  0.7474234  0.5056779  0.7504975

 Al 
  0.7556148  0.7502970  0.4907393

