32 
charge = 0 
 Al 
  0.0057831  0.9889869  0.0089129

 Al 
  0.9899262  0.2552139  0.2454953

 Al 
  0.2488701  0.9979184  0.2597718

 Al 
  0.2530679  0.2322224  0.0138434

 Al 
  0.5104079  0.0132803  0.0121875

 Al 
  0.5084563  0.2395574  0.2520296

 Al 
  0.7426551  0.9920400  0.2371269

 Al 
  0.7631838  0.2580528  0.9860193

 Al 
  0.0109512  0.5054997  0.9889449

 Al 
  0.0043315  0.7470893  0.2420128

 Al 
  0.2589179  0.5034268  0.2431786

 Al 
  0.2596084  0.7559032  0.0188506

 Al 
  0.9995755  0.0101493  0.4901379

 Al 
  0.0064477  0.2415413  0.7455101

 Al 
  0.2528278  0.0213368  0.7740743

 Al 
  0.2383137  0.2396961  0.4908854

 Al 
  0.0027474  0.4938753  0.4960002

 Al 
  0.0004579  0.7613027  0.7488812

 Al 
  0.2489518  0.4996027  0.7666291

 Al 
  0.2412418  0.7367234  0.4994134

 Al 
  0.4819724  0.4984258  0.9996201

 Al 
  0.5080553  0.7429768  0.2447663

 Al 
  0.7383360  0.4991882  0.2275321

 Al 
  0.7372444  0.7426538  0.9883781

 Al 
  0.4920895  0.0072509  0.5084142

 Al 
  0.4977910  0.2529627  0.7615997

 Al 
  0.7539949  0.0055047  0.7483763

 Al 
  0.7521831  0.2529961  0.5025011

 Al 
  0.4968120  0.5058698  0.4999542

 Al 
  0.4927924  0.7409448  0.7582050

 Al 
  0.7479630  0.5068660  0.7517388

 Al 
  0.7540419  0.7509418  0.4890129

