32 
charge = 0 
 Al 
  0.0060195  0.9917096  0.0105180

 Al 
  0.9888718  0.2572286  0.2488565

 Al 
  0.2470707  0.9969296  0.2602000

 Al 
  0.2521558  0.2328090  0.0121430

 Al 
  0.5134065  0.0135637  0.0123892

 Al 
  0.5077793  0.2388075  0.2528080

 Al 
  0.7406416  0.9931959  0.2377865

 Al 
  0.7620922  0.2582236  0.9859042

 Al 
  0.0102817  0.5076741  0.9881528

 Al 
  0.0027585  0.7485124  0.2410351

 Al 
  0.2608410  0.5034082  0.2446401

 Al 
  0.2596777  0.7540604  0.0161836

 Al 
  0.9975719  0.0114103  0.4909633

 Al 
  0.0065207  0.2427565  0.7474766

 Al 
  0.2526422  0.0197911  0.7746201

 Al 
  0.2421823  0.2379412  0.4920536

 Al 
  0.0002797  0.4959903  0.4979716

 Al 
  0.9989939  0.7601950  0.7481239

 Al 
  0.2465460  0.4959952  0.7624288

 Al 
  0.2407406  0.7354240  0.4976870

 Al 
  0.4830491  0.4968950  0.9993478

 Al 
  0.5085800  0.7415128  0.2487265

 Al 
  0.7396193  0.5007611  0.2271657

 Al 
  0.7375043  0.7430659  0.9880303

 Al 
  0.4951141  0.0056235  0.5079328

 Al 
  0.5018365  0.2543339  0.7611084

 Al 
  0.7526075  0.0017809  0.7452478

 Al 
  0.7533055  0.2535865  0.4994617

 Al 
  0.4965658  0.5065467  0.5015346

 Al 
  0.4940634  0.7400896  0.7594711

 Al 
  0.7487872  0.5083882  0.7532325

 Al 
  0.7518922  0.7517883  0.4868014

