32 
charge = 0 
 Al 
  0.0047151  0.9846567  0.0056136

 Al 
  0.9922083  0.2512153  0.2388236

 Al 
  0.2525098  0.9995768  0.2588362

 Al 
  0.2542820  0.2326754  0.0175202

 Al 
  0.5043636  0.0118781  0.0106851

 Al 
  0.5094624  0.2418432  0.2507809

 Al 
  0.7474618  0.9904621  0.2366690

 Al 
  0.7647691  0.2572435  0.9867395

 Al 
  0.0115465  0.5013366  0.9911898

 Al 
  0.0067311  0.7438506  0.2442094

 Al 
  0.2545282  0.5026471  0.2411329

 Al 
  0.2591914  0.7595453  0.0225533

 Al 
  0.0030333  0.0068586  0.4888298

 Al 
  0.0060603  0.2399634  0.7422541

 Al 
  0.2534206  0.0222910  0.7717155

 Al 
  0.2320492  0.2441067  0.4890575

 Al 
  0.0070677  0.4901849  0.4923420

 Al 
  0.0034243  0.7630538  0.7502351

 Al 
  0.2532808  0.5062435  0.7732798

 Al 
  0.2426031  0.7399498  0.5029553

 Al 
  0.4811222  0.5007178  0.0003651

 Al 
  0.5066123  0.7462972  0.2379944

 Al 
  0.7367197  0.4960856  0.2289664

 Al 
  0.7376764  0.7422850  0.9894003

 Al 
  0.4866838  0.0097173  0.5094909

 Al 
  0.4904077  0.2505755  0.7619697

 Al 
  0.7561532  0.0121504  0.7543773

 Al 
  0.7496461  0.2518068  0.5078870

 Al 
  0.4973133  0.5040295  0.4969271

 Al 
  0.4902629  0.7436773  0.7552906

 Al 
  0.7467279  0.5037758  0.7483788

 Al 
  0.7579662  0.7493008  0.4935313

