32 
charge = 0 
 Al 
  0.0045456  0.9842533  0.0052312

 Al 
  0.9924818  0.2507487  0.2380600

 Al 
  0.2529355  0.9997413  0.2587236

 Al 
  0.2543636  0.2328697  0.0179595

 Al 
  0.5036756  0.0116405  0.0104302

 Al 
  0.5095453  0.2421675  0.2506559

 Al 
  0.7480731  0.9903408  0.2366814

 Al 
  0.7648879  0.2571110  0.9868657

 Al 
  0.0115415  0.5008700  0.9915029

 Al 
  0.0069440  0.7434434  0.2444829

 Al 
  0.2539825  0.5024875  0.2409769

 Al 
  0.2591109  0.7599673  0.0228281

 Al 
  0.0033823  0.0064044  0.4887110

 Al 
  0.0060034  0.2398668  0.7419422

 Al 
  0.2534949  0.0222118  0.7713343

 Al 
  0.2314663  0.2446958  0.4888855

 Al 
  0.0075071  0.4898062  0.4919435

 Al 
  0.0037684  0.7632097  0.7503812

 Al 
  0.2537226  0.5069601  0.7738850

 Al 
  0.2427999  0.7403755  0.5033699

 Al 
  0.4811519  0.5009108  0.0004765

 Al 
  0.5064192  0.7467167  0.2373311

 Al 
  0.7366232  0.4957304  0.2291966

 Al 
  0.7378174  0.7422801  0.9895364

 Al 
  0.4861158  0.0099376  0.5096220

 Al 
  0.4896169  0.2503478  0.7619610

 Al 
  0.7563450  0.0128348  0.7550517

 Al 
  0.7493317  0.2516620  0.5084451

 Al 
  0.4973603  0.5037795  0.4965843

 Al 
  0.4899819  0.7440944  0.7549218

 Al 
  0.7466202  0.5034169  0.7479617

 Al 
  0.7583857  0.7491189  0.4940622

