32 
charge = 0 
 Al 
  0.0034243  0.9824328  0.0031224

 Al 
  0.9940300  0.2480929  0.2338609

 Al 
  0.2553277  0.0005705  0.2580850

 Al 
  0.2545381  0.2345552  0.0203901

 Al 
  0.4999666  0.0099970  0.0087038

 Al 
  0.5098584  0.2441723  0.2500099

 Al 
  0.7516571  0.9899052  0.2370006

 Al 
  0.7652059  0.2562324  0.9877791

 Al 
  0.0111480  0.4983268  0.9934422

 Al 
  0.0078276  0.7410710  0.2460831

 Al 
  0.2508366  0.5013093  0.2404609

 Al 
  0.2584575  0.7623063  0.0236313

 Al 
  0.0050926  0.0035184  0.4882073

 Al 
  0.0056940  0.2397604  0.7405141

 Al 
  0.2538439  0.0209321  0.7687416

 Al 
  0.2289156  0.2483058  0.4880847

 Al 
  0.0096443  0.4879301  0.4898371

 Al 
  0.0056742  0.7638273  0.7511645

 Al 
  0.2558351  0.5107346  0.7764888

 Al 
  0.2441067  0.7429558  0.5056928

 Al 
  0.4819526  0.5016509  0.0012475

 Al 
  0.5052819  0.7492228  0.2342520

 Al 
  0.7365143  0.4937713  0.2307868

 Al 
  0.7390439  0.7423939  0.9903247

 Al 
  0.4832075  0.0108980  0.5103559

 Al 
  0.4854958  0.2493825  0.7616826

 Al 
  0.7571246  0.0162046  0.7587360

 Al 
  0.7474791  0.2507920  0.5112433

 Al 
  0.4975236  0.5022375  0.4946946

 Al 
  0.4885513  0.7469135  0.7527424

 Al 
  0.7461697  0.5014182  0.7455609

 Al 
  0.7605725  0.7481746  0.4970744

