32 
charge = 0 
 Al 
  0.0041891  0.9835367  0.0044924

 Al 
  0.9930140  0.2498416  0.2365898

 Al 
  0.2537622  0.0000458  0.2585033

 Al 
  0.2544800  0.2333350  0.0188109

 Al 
  0.5023613  0.0111331  0.0098906

 Al 
  0.5096852  0.2428259  0.2504220

 Al 
  0.7492835  0.9901416  0.2367420

 Al 
  0.7650698  0.2568326  0.9871405

 Al 
  0.0114784  0.4999752  0.9921390

 Al 
  0.0073090  0.7426402  0.2450238

 Al 
  0.2529095  0.5021360  0.2407282

 Al 
  0.2589265  0.7607816  0.0232538

 Al 
  0.0040208  0.0054737  0.4885043

 Al 
  0.0058933  0.2397418  0.7413829

 Al 
  0.2536322  0.0219346  0.7705262

 Al 
  0.2304391  0.2458863  0.4885773

 Al 
  0.0083139  0.4891070  0.4911898

 Al 
  0.0044317  0.7634746  0.7506571

 Al 
  0.2545282  0.5083139  0.7749418

 Al 
  0.2432107  0.7412282  0.5041743

 Al 
  0.4813004  0.5012338  0.0007128

 Al 
  0.5060356  0.7475533  0.2361356

 Al 
  0.7364982  0.4950473  0.2296866

 Al 
  0.7381541  0.7422912  0.9898062

 Al 
  0.4850552  0.0103225  0.5098782

 Al 
  0.4881305  0.2499493  0.7619091

 Al 
  0.7566742  0.0140958  0.7563437

 Al 
  0.7487092  0.2513749  0.5094797

 Al 
  0.4974395  0.5032734  0.4959247

 Al 
  0.4894572  0.7449718  0.7541904

 Al 
  0.7464346  0.5027226  0.7471425

 Al 
  0.7591741  0.7487773  0.4950980

