32 
charge = 0 
 Al 
  0.0050369  0.9855576  0.0064069

 Al 
  0.9916489  0.2521732  0.2404089

 Al 
  0.2516336  0.9992179  0.2590676

 Al 
  0.2540716  0.2323722  0.0166180

 Al 
  0.5057980  0.0123162  0.0111603

 Al 
  0.5092656  0.2412108  0.2510507

 Al 
  0.7462316  0.9907542  0.2366863

 Al 
  0.7644733  0.2574910  0.9865069

 Al 
  0.0115031  0.5023118  0.9905772

 Al 
  0.0062485  0.7446686  0.2436563

 Al 
  0.2556334  0.5029293  0.2415116

 Al 
  0.2593325  0.7586753  0.0218764

 Al 
  0.0022771  0.0077459  0.4890983

 Al 
  0.0061730  0.2402257  0.7429459

 Al 
  0.2532672  0.0223244  0.7724308

 Al 
  0.2333560  0.2429422  0.4894374

 Al 
  0.0061136  0.4910004  0.4931823

 Al 
  0.0027140  0.7626986  0.7499282

 Al 
  0.2523229  0.5047263  0.7719135

 Al 
  0.2422256  0.7391070  0.5021001

 Al 
  0.4811532  0.5002686  0.0001547

 Al 
  0.5069947  0.7454557  0.2394547

 Al 
  0.7369846  0.4968219  0.2285357

 Al 
  0.7374499  0.7423222  0.9891280

 Al 
  0.4878966  0.0092186  0.5092223

 Al 
  0.4920846  0.2510841  0.7619536

 Al 
  0.7557151  0.0106715  0.7529714

 Al 
  0.7502834  0.2520989  0.5066866

 Al 
  0.4972043  0.5045221  0.4976387

 Al 
  0.4908544  0.7428890  0.7560319

 Al 
  0.7469742  0.5045171  0.7492228

 Al 
  0.7570751  0.7496819  0.4924385

