32 
charge = 0 
 Al 
  0.0048797  0.9850923  0.0060059

 Al 
  0.9919311  0.2516905  0.2396070

 Al 
  0.2520766  0.9994023  0.2589513

 Al 
  0.2541842  0.2325095  0.0170734

 Al 
  0.5050715  0.0121034  0.0109289

 Al 
  0.5093683  0.2415239  0.2509121

 Al 
  0.7468479  0.9905995  0.2366702

 Al 
  0.7646305  0.2573697  0.9866195

 Al 
  0.0115341  0.5018167  0.9908804

 Al 
  0.0064997  0.7442589  0.2439335

 Al 
  0.2550790  0.5027944  0.2413111

 Al 
  0.2592656  0.7591146  0.0222365

 Al 
  0.0026657  0.0073066  0.4889585

 Al 
  0.0061173  0.2400834  0.7425895

 Al 
  0.2533451  0.0223293  0.7720818

 Al 
  0.2326791  0.2435214  0.4892406

 Al 
  0.0066024  0.4905834  0.4927553

 Al 
  0.0030729  0.7628843  0.7500842

 Al 
  0.2528142  0.5054985  0.7726226

 Al 
  0.2424113  0.7395277  0.5025321

 Al 
  0.4811222  0.5005037  0.0002574

 Al 
  0.5068041  0.7458764  0.2387023

 Al 
  0.7368410  0.4964494  0.2287461

 Al 
  0.7375538  0.7422986  0.9892641

 Al 
  0.4872766  0.0094785  0.5093572

 Al 
  0.4912294  0.2508205  0.7619672

 Al 
  0.7559428  0.0114289  0.7536842

 Al 
  0.7499641  0.2519529  0.5073004

 Al 
  0.4972613  0.5042770  0.4972786

 Al 
  0.4905537  0.7432751  0.7556606

 Al 
  0.7468467  0.5041421  0.7487996

 Al 
  0.7575293  0.7494889  0.4929892

