32 
charge = 0 
 Al 
  0.0011744  0.9813153  0.0001361

 Al 
  0.9964754  0.2434954  0.2278018

 Al 
  0.2590354  0.0016658  0.2570850

 Al 
  0.2537572  0.2393161  0.0235459

 Al 
  0.4949792  0.0064130  0.0050010

 Al 
  0.5097099  0.2477179  0.2490941

 Al 
  0.7576605  0.9900574  0.2384325

 Al 
  0.7640896  0.2544812  0.9901156

 Al 
  0.0090293  0.4946636  0.9968937

 Al 
  0.0080293  0.7371714  0.2487538

 Al 
  0.2459111  0.4985149  0.2409188

 Al 
  0.2563970  0.7656614  0.0219036

 Al 
  0.0068932  0.9977588  0.4880971

 Al 
  0.0055059  0.2414076  0.7396329

 Al 
  0.2537152  0.0158643  0.7630167

 Al 
  0.2279850  0.2548042  0.4874363

 Al 
  0.0114066  0.4861170  0.4870922

 Al 
  0.0085441  0.7636144  0.7523613

 Al 
  0.2574613  0.5157344  0.7775073

 Al 
  0.2470410  0.7476994  0.5092396

 Al 
  0.4858101  0.5015890  0.0030939

 Al 
  0.5035048  0.7537263  0.2321878

 Al 
  0.7381850  0.4908841  0.2345268

 Al 
  0.7427652  0.7430065  0.9915351

 Al 
  0.4797671  0.0115242  0.5113150

 Al 
  0.4801235  0.2493379  0.7603646

 Al 
  0.7570454  0.0193679  0.7641119

 Al 
  0.7441859  0.2489431  0.5141986

 Al 
  0.4972031  0.4993862  0.4918172

 Al 
  0.4872172  0.7533055  0.7490038

 Al 
  0.7460113  0.4983677  0.7418036

 Al 
  0.7633793  0.7470905  0.5019739

