32 
charge = 0 
 Al 
  0.0023650  0.9815974  0.0015717

 Al 
  0.9952453  0.2459074  0.2307398

 Al 
  0.2571890  0.0011274  0.2575875

 Al 
  0.2543080  0.2366096  0.0221214

 Al 
  0.4973368  0.0083511  0.0070120

 Al 
  0.5098894  0.2459049  0.2495508

 Al 
  0.7546000  0.9898594  0.2375650

 Al 
  0.7649324  0.2554069  0.9887815

 Al 
  0.0103398  0.4964494  0.9951240

 Al 
  0.0081147  0.7391416  0.2473962

 Al 
  0.2483516  0.5000483  0.2405042

 Al 
  0.2576221  0.7640513  0.0232550

 Al 
  0.0061197  0.0008354  0.4880390

 Al 
  0.0055270  0.2402839  0.7398520

 Al 
  0.2539305  0.0188753  0.7661502

 Al 
  0.2279392  0.2514442  0.4876640

 Al 
  0.0108076  0.4868286  0.4883743

 Al 
  0.0071246  0.7639325  0.7517561

 Al 
  0.2569303  0.5133620  0.7774751

 Al 
  0.2454185  0.7452131  0.5074835

 Al 
  0.4834488  0.5017994  0.0020618

 Al 
  0.5043785  0.7513774  0.2327657

 Al 
  0.7370353  0.4922962  0.2324378

 Al 
  0.7405995  0.7426439  0.9909361

 Al 
  0.4813091  0.0113286  0.5108819

 Al 
  0.4826692  0.2491065  0.7611678

 Al 
  0.7573078  0.0181402  0.7614821

 Al 
  0.7459086  0.2499827  0.5129523

 Al 
  0.4974729  0.5008774  0.4932516

 Al 
  0.4877036  0.7497748  0.7509207

 Al 
  0.7460076  0.4998837  0.7436649

 Al 
  0.7620662  0.7475608  0.4994765

