32 
charge = 0 
 Al 
  0.0030147  0.9820306  0.0024838

 Al 
  0.9945188  0.2472303  0.2325813

 Al 
  0.2560801  0.0008019  0.2578845

 Al 
  0.2544862  0.2353052  0.0211165

 Al 
  0.4988738  0.0093708  0.0080578

 Al 
  0.5098943  0.2448579  0.2498218

 Al 
  0.7528303  0.9898557  0.2371937

 Al 
  0.7651577  0.2559131  0.9881479

 Al 
  0.0108794  0.4975571  0.9941067

 Al 
  0.0079872  0.7402987  0.2466066

 Al 
  0.2498329  0.5008366  0.2404324

 Al 
  0.2581617  0.7630229  0.0235929

 Al 
  0.0055393  0.0024838  0.4881132

 Al 
  0.0056136  0.2399027  0.7401948

 Al 
  0.2539070  0.0202168  0.7677578

 Al 
  0.2284045  0.2495409  0.4878929

 Al 
  0.0101752  0.4874425  0.4892258

 Al 
  0.0062645  0.7639152  0.7514034

 Al 
  0.2563425  0.5118286  0.7770011

 Al 
  0.2446018  0.7438407  0.5064180

 Al 
  0.4824563  0.5017561  0.0015519

 Al 
  0.5049156  0.7500693  0.2335466

 Al 
  0.7366541  0.4931687  0.2314044

 Al 
  0.7396020  0.7424793  0.9905722

 Al 
  0.4824006  0.0111034  0.5105762

 Al 
  0.4843151  0.2492141  0.7615081

 Al 
  0.7572484  0.0170672  0.7598584

 Al 
  0.7468603  0.2504851  0.5119870

 Al 
  0.4975261  0.5017054  0.4941092

 Al 
  0.4881726  0.7479914  0.7520197

 Al 
  0.7460844  0.5007970  0.7447948

 Al 
  0.7611975  0.7479110  0.4980360

