32 
charge = 0 
 Al 
  0.0028031  0.9818635  0.0021744

 Al 
  0.9947614  0.2467947  0.2319588

 Al 
  0.2564514  0.0009121  0.2577843

 Al 
  0.2544391  0.2357161  0.0214630

 Al 
  0.4983491  0.0090416  0.0077199

 Al 
  0.5099017  0.2452044  0.2497302

 Al 
  0.7534181  0.9898470  0.2373063

 Al 
  0.7651045  0.2557472  0.9883483

 Al 
  0.0107185  0.4971833  0.9944421

 Al 
  0.0080442  0.7399139  0.2468690

 Al 
  0.2493367  0.5005841  0.2404411

 Al 
  0.2579959  0.7633719  0.0235174

 Al 
  0.0057435  0.0019479  0.4880798

 Al 
  0.0055802  0.2400067  0.7400624

 Al 
  0.2539243  0.0198060  0.7672405

 Al 
  0.2282090  0.2501683  0.4878088

 Al 
  0.0104079  0.4872222  0.4889350

 Al 
  0.0065529  0.7639374  0.7515222

 Al 
  0.2565616  0.5123521  0.7771979

 Al 
  0.2448629  0.7442911  0.5067757

 Al 
  0.4827546  0.5017858  0.0017140

 Al 
  0.5047349  0.7504987  0.2332496

 Al 
  0.7367581  0.4928741  0.2317336

 Al 
  0.7399126  0.7425288  0.9906948

 Al 
  0.4820219  0.0111888  0.5106814

 Al 
  0.4837520  0.2491585  0.7614054

 Al 
  0.7572843  0.0174533  0.7604054

 Al 
  0.7465472  0.2503242  0.5123286

 Al 
  0.4975162  0.5014331  0.4938221

 Al 
  0.4880031  0.7485620  0.7516559

 Al 
  0.7460522  0.5004901  0.7444161

 Al 
  0.7614957  0.7477885  0.4985149

