32 
charge = 0 
 Al 
  0.0021385  0.9814960  0.0012772

 Al 
  0.9954878  0.2454520  0.2301408

 Al 
  0.2575566  0.0012338  0.2574885

 Al 
  0.2542238  0.2370959  0.0224333

 Al 
  0.4968479  0.0079885  0.0066395

 Al 
  0.5098720  0.2462601  0.2494604

 Al 
  0.7551978  0.9898805  0.2377122

 Al 
  0.7648136  0.2552299  0.9890179

 Al 
  0.0101208  0.4960881  0.9954693

 Al 
  0.0081271  0.7387543  0.2476622

 Al 
  0.2478627  0.4997636  0.2405586

 Al 
  0.2574130  0.7643842  0.0230657

 Al 
  0.0062918  0.0002562  0.4880315

 Al 
  0.0055096  0.2404572  0.7397728

 Al 
  0.2539156  0.0183531  0.7655722

 Al 
  0.2278650  0.2520952  0.4876033

 Al 
  0.0109747  0.4866554  0.4881058

 Al 
  0.0074080  0.7639053  0.7518737

 Al 
  0.2570813  0.5138520  0.7775568

 Al 
  0.2457143  0.7456883  0.5078350

 Al 
  0.4838473  0.5017833  0.0022487

 Al 
  0.5042015  0.7518266  0.2325764

 Al 
  0.7372110  0.4920103  0.2328140

 Al 
  0.7409782  0.7427083  0.9910549

 Al 
  0.4809750  0.0113831  0.5109772

 Al 
  0.4821444  0.2491102  0.7610329

 Al 
  0.7572930  0.0184422  0.7620130

 Al 
  0.7455794  0.2497983  0.5132370

 Al 
  0.4974382  0.5005916  0.4929682

 Al 
  0.4875749  0.7504195  0.7505482

 Al 
  0.7459952  0.4995817  0.7432912

 Al 
  0.7623410  0.7474543  0.4999616

