32 
charge = 0 
 Al 
  0.0032214  0.9822199  0.0027994

 Al 
  0.9942750  0.2476622  0.2332149

 Al 
  0.2557064  0.0006881  0.2579835

 Al 
  0.2545183  0.2349178  0.0207589

 Al 
  0.4994134  0.0096889  0.0083857

 Al 
  0.5098807  0.2445139  0.2499146

 Al 
  0.7522437  0.9898755  0.2370922

 Al 
  0.7651923  0.2560752  0.9879585

 Al 
  0.0110217  0.4979382  0.9937726

 Al 
  0.0079154  0.7406849  0.2463455

 Al 
  0.2503329  0.5010779  0.2404386

 Al 
  0.2583152  0.7626677  0.0236313

 Al 
  0.0053228  0.0030060  0.4881565

 Al 
  0.0056519  0.2398198  0.7403458

 Al 
  0.2538798  0.0205930  0.7682578

 Al 
  0.2286397  0.2489208  0.4879845

 Al 
  0.0099203  0.4876776  0.4895265

 Al 
  0.0059712  0.7638793  0.7512858

 Al 
  0.2560999  0.5112903  0.7767648

 Al 
  0.2443505  0.7433964  0.5060579

 Al 
  0.4821890  0.5017115  0.0013960

 Al 
  0.5050988  0.7496448  0.2338807

 Al 
  0.7365724  0.4934681  0.2310888

 Al 
  0.7393124  0.7424335  0.9904497

 Al 
  0.4827954  0.0110069  0.5104673

 Al 
  0.4848955  0.2492884  0.7616009

 Al 
  0.7571940  0.0166514  0.7593015

 Al 
  0.7471709  0.2506411  0.5116257

 Al 
  0.4975286  0.5019727  0.4944000

 Al 
  0.4883558  0.7474432  0.7523811

 Al 
  0.7461227  0.5011051  0.7451760

 Al 
  0.7608905  0.7480397  0.4975571

