32 
charge = 0 
 Al 
  0.9998490  0.9816284  0.9987785

 Al 
  0.9977811  0.2406119  0.2250136

 Al 
  0.2609141  0.0022598  0.2565393

 Al 
  0.2529008  0.2427813  0.0245248

 Al 
  0.4928110  0.0041446  0.0025568

 Al 
  0.5092805  0.2496164  0.2485917

 Al 
  0.7609599  0.9904869  0.2396961

 Al 
  0.7625192  0.2534417  0.9919051

 Al 
  0.0071024  0.4929026  0.9987600

 Al 
  0.0075677  0.7351084  0.2501943

 Al 
  0.2434904  0.4967155  0.2416885

 Al 
  0.2546371  0.7671143  0.0194669

 Al 
  0.0074774  0.9941983  0.4884164

 Al 
  0.0056990  0.2432256  0.7398730

 Al 
  0.2530370  0.0117890  0.7591753

 Al 
  0.2291656  0.2584389  0.4874276

 Al 
  0.0113311  0.4858336  0.4859747

 Al 
  0.0099871  0.7627506  0.7530370

 Al 
  0.2574167  0.5179719  0.7765816

 Al 
  0.2490867  0.7505173  0.5109871

 Al 
  0.4891961  0.5010643  0.0043872

 Al 
  0.5026583  0.7563734  0.2325702

 Al 
  0.7401119  0.4895104  0.2372345

 Al 
  0.7456933  0.7434582  0.9921675

 Al 
  0.4785852  0.0115588  0.5116021

 Al 
  0.4776657  0.2501559  0.7592137

 Al 
  0.7562596  0.0198555  0.7667009

 Al 
  0.7422145  0.2474840  0.5149968

 Al 
  0.4966487  0.4977303  0.4903210

 Al 
  0.4872209  0.7577038  0.7469383

 Al 
  0.7461747  0.4967997  0.7399535

 Al 
  0.7645562  0.7467687  0.5047300

