32 
charge = 0 
 Al 
  0.0009195  0.9813277  0.9998589

 Al 
  0.9967291  0.2429632  0.2272301

 Al 
  0.2594092  0.0017784  0.2569799

 Al 
  0.2536100  0.2399460  0.0237847

 Al 
  0.4945312  0.0059861  0.0045505

 Al 
  0.5096456  0.2480917  0.2489976

 Al 
  0.7583003  0.9901243  0.2386503

 Al 
  0.7638397  0.2542832  0.9904336

 Al 
  0.0086964  0.4943109  0.9972600

 Al 
  0.0079674  0.7367667  0.2490347

 Al 
  0.2454247  0.4981746  0.2410450

 Al 
  0.2560913  0.7659670  0.0215064

 Al 
  0.0070244  0.9970855  0.4881392

 Al 
  0.0055245  0.2417133  0.7396428

 Al 
  0.2536236  0.0151366  0.7623100

 Al 
  0.2281248  0.2555096  0.4874152

 Al 
  0.0114499  0.4860230  0.4868546

 Al 
  0.0088312  0.7634894  0.7524887

 Al 
  0.2574996  0.5161923  0.7773996

 Al 
  0.2474135  0.7482340  0.5095923

 Al 
  0.4864017  0.5015074  0.0033315

 Al 
  0.5033328  0.7542300  0.2321841

 Al 
  0.7385030  0.4906057  0.2350131

 Al 
  0.7432862  0.7430907  0.9916576

 Al 
  0.4794985  0.0115415  0.5113868

 Al 
  0.4796297  0.2494518  0.7601641

 Al 
  0.7569341  0.0195275  0.7646342

 Al 
  0.7438134  0.2486907  0.5143953

 Al 
  0.4971177  0.4990681  0.4915239

 Al 
  0.4871727  0.7541112  0.7486028

 Al 
  0.7460311  0.4980595  0.7414324

 Al 
  0.7636256  0.7470125  0.5025011

