32 
charge = 0 
 Al 
  0.0003935  0.9814267  0.9993119

 Al 
  0.9972477  0.2418346  0.2261039

 Al 
  0.2601604  0.0020123  0.2567645

 Al 
  0.2532783  0.2412999  0.0242018

 Al 
  0.4936563  0.0050913  0.0035914

 Al 
  0.5094859  0.2488503  0.2487996

 Al 
  0.7596097  0.9902876  0.2391367

 Al 
  0.7632456  0.2538711  0.9911279

 Al 
  0.0079538  0.4936055  0.9980050

 Al 
  0.0077979  0.7359438  0.2496077

 Al 
  0.2444532  0.4974630  0.2413395

 Al 
  0.2554119  0.7665573  0.0205782

 Al 
  0.0072645  0.9956797  0.4882543

 Al 
  0.0055913  0.2424100  0.7397196

 Al 
  0.2533761  0.0135488  0.7608039

 Al 
  0.2285469  0.2569551  0.4874004

 Al 
  0.0114524  0.4858905  0.4863992

 Al 
  0.0094080  0.7631714  0.7527561

 Al 
  0.2575046  0.5170920  0.7770692

 Al 
  0.2482130  0.7493478  0.5102940

 Al 
  0.4877110  0.5013081  0.0038389

 Al 
  0.5029924  0.7552770  0.2322954

 Al 
  0.7392382  0.4900537  0.2360663

 Al 
  0.7444235  0.7432689  0.9919088

 Al 
  0.4790072  0.0115601  0.5115106

 Al 
  0.4786459  0.2497525  0.7597186

 Al 
  0.7566432  0.0197552  0.7656725

 Al 
  0.7430350  0.2481300  0.5147344

 Al 
  0.4969086  0.4984122  0.4909274

 Al 
  0.4871479  0.7558339  0.7477811

 Al 
  0.7460905  0.4974345  0.7406898

 Al 
  0.7641033  0.7468776  0.5035902

