32 
charge = 0 
 Al 
  0.9964061  0.9860205  0.9957527

 Al 
  0.0014913  0.2299923  0.2205794

 Al 
  0.2652035  0.0042164  0.2546446

 Al 
  0.2499975  0.2553537  0.0222068

 Al 
  0.4884189  0.9971586  0.9939013

 Al 
  0.5066073  0.2541112  0.2469902

 Al 
  0.7699891  0.9923939  0.2457279

 Al 
  0.7534478  0.2504814  0.9991820

 Al 
  0.9984357  0.4887555  0.0032932

 Al 
  0.0044627  0.7301235  0.2540295

 Al 
  0.2383855  0.4918890  0.2451698

 Al 
  0.2471301  0.7690127  0.0076704

 Al 
  0.0081258  0.9835553  0.4909200

 Al 
  0.0076358  0.2517128  0.7429385

 Al 
  0.2473912  0.9968417  0.7457304

 Al 
  0.2388322  0.2680882  0.4892827

 Al 
  0.0062014  0.4877135  0.4848015

 Al 
  0.0130984  0.7566680  0.7551841

 Al 
  0.2546644  0.5225249  0.7691030

 Al 
  0.2565950  0.7589166  0.5140005

 Al 
  0.5033600  0.4987921  0.0084761

 Al 
  0.5008737  0.7644844  0.2391565

 Al 
  0.7499530  0.4866083  0.2484134

 Al 
  0.7572670  0.7447998  0.9942973

 Al 
  0.4788723  0.0114784  0.5104376

 Al 
  0.4712452  0.2559737  0.7543302

 Al 
  0.7510111  0.0163668  0.7721561

 Al 
  0.7360663  0.2404485  0.5142555

 Al 
  0.4935832  0.4931748  0.4865267

 Al 
  0.4917244  0.7729345  0.7415846

 Al 
  0.7472006  0.4924187  0.7358893

 Al 
  0.7663247  0.7469940  0.5133694

