32 
charge = 0 
 Al 
  0.9977056  0.9834761  0.9968801

 Al 
  0.9999505  0.2349277  0.2215014

 Al 
  0.2636998  0.0033488  0.2555430

 Al 
  0.2511670  0.2496188  0.0244505

 Al 
  0.4899151  0.0001052  0.9978479

 Al 
  0.5080231  0.2524937  0.2476919

 Al 
  0.7663853  0.9915351  0.2426464

 Al 
  0.7582607  0.2516831  0.9957094

 Al 
  0.0027313  0.4902975  0.0016249

 Al 
  0.0060962  0.7319167  0.2525098

 Al 
  0.2400648  0.4936983  0.2435003

 Al 
  0.2507277  0.7687515  0.0134758

 Al 
  0.0080404  0.9879833  0.4895290

 Al 
  0.0065541  0.2475224  0.7412158

 Al 
  0.2506250  0.0035469  0.7517969

 Al 
  0.2335441  0.2643000  0.4880464

 Al 
  0.0094278  0.4864215  0.4847891

 Al 
  0.0121108  0.7600032  0.7542585

 Al 
  0.2562262  0.5210485  0.7731771

 Al 
  0.2531446  0.7554354  0.5133248

 Al 
  0.4965732  0.4998008  0.0067831

 Al 
  0.5014789  0.7610180  0.2352916

 Al 
  0.7449272  0.4876058  0.2429471

 Al 
  0.7518217  0.7442528  0.9932961

 Al 
  0.4778662  0.0114635  0.5114524

 Al 
  0.4738713  0.2528093  0.7566890

 Al 
  0.7538191  0.0188481  0.7703703

 Al 
  0.7386949  0.2440226  0.5151812

 Al 
  0.4951277  0.4949693  0.4879585

 Al 
  0.4887431  0.7661824  0.7436303

 Al 
  0.7467056  0.4942664  0.7372977

 Al 
  0.7659670  0.7466462  0.5095837

