32 
charge = 0 
 Al 
  0.9966932  0.9852520  0.9960188

 Al 
  0.0011101  0.2313066  0.2205943

 Al 
  0.2648965  0.0039911  0.2548958

 Al 
  0.2502574  0.2538476  0.0230471

 Al 
  0.4887357  0.9978801  0.9949433

 Al 
  0.5070170  0.2537709  0.2471697

 Al 
  0.7691426  0.9921836  0.2448406

 Al 
  0.7548525  0.2507698  0.9982389

 Al 
  0.9996386  0.4891008  0.0029268

 Al 
  0.0049280  0.7304948  0.2536718

 Al 
  0.2387060  0.4922739  0.2447193

 Al 
  0.2481003  0.7690622  0.0092607

 Al 
  0.0081394  0.9846369  0.4905042

 Al 
  0.0073189  0.2505544  0.7424335

 Al 
  0.2483788  0.9985508  0.7473133

 Al 
  0.2372890  0.2672058  0.4888731

 Al 
  0.0072175  0.4873100  0.4846839

 Al 
  0.0129375  0.7576580  0.7549552

 Al 
  0.2551074  0.5222489  0.7702973

 Al 
  0.2556816  0.7580825  0.5139807

 Al 
  0.5015135  0.4990359  0.0080739

 Al 
  0.5009975  0.7636157  0.2379820

 Al 
  0.7485248  0.4868200  0.2468851

 Al 
  0.7558029  0.7446711  0.9940189

 Al 
  0.4784293  0.0114499  0.5108113

 Al 
  0.4718950  0.2550480  0.7549762

 Al 
  0.7518242  0.0171823  0.7718244

 Al 
  0.7367210  0.2414596  0.5146020

 Al 
  0.4940052  0.4935832  0.4868422

 Al 
  0.4907418  0.7712143  0.7420449

 Al 
  0.7470732  0.4928890  0.7361789

 Al 
  0.7663210  0.7468529  0.5123905

