32 
charge = 0 
 Al 
  0.9972538  0.9841518  0.9965002

 Al 
  0.0004468  0.2334389  0.2209915

 Al 
  0.2642493  0.0036174  0.2552832

 Al 
  0.2507648  0.2513700  0.0240149

 Al 
  0.4893743  0.9991535  0.9966462

 Al 
  0.5076296  0.2530729  0.2474729

 Al 
  0.7675870  0.9918098  0.2435115

 Al 
  0.7569316  0.2512871  0.9967390

 Al 
  0.0014925  0.4897641  0.0022103

 Al 
  0.0056359  0.7312683  0.2530172

 Al 
  0.2394275  0.4930573  0.2439978

 Al 
  0.2496572  0.7689508  0.0117729

 Al 
  0.0081036  0.9865477  0.4899027

 Al 
  0.0068499  0.2487426  0.7416861

 Al 
  0.2497760  0.0014541  0.7499319

 Al 
  0.2349983  0.2655735  0.4883397

 Al 
  0.0086159  0.4867457  0.4846790

 Al 
  0.0125080  0.7590986  0.7545542

 Al 
  0.2557881  0.5216140  0.7720596

 Al 
  0.2541929  0.7565764  0.5136862

 Al 
  0.4985818  0.4994753  0.0073425

 Al 
  0.5012574  0.7621194  0.2363088

 Al 
  0.7463541  0.4872469  0.2445263

 Al 
  0.7534516  0.7444347  0.9935882

 Al 
  0.4779937  0.0114462  0.5112494

 Al 
  0.4730249  0.2536780  0.7559948

 Al 
  0.7530395  0.0182590  0.7710547

 Al 
  0.7378570  0.2430053  0.5150067

 Al 
  0.4946760  0.4943604  0.4874610

 Al 
  0.4894560  0.7682961  0.7429261

 Al 
  0.7468578  0.4936835  0.7367853

 Al 
  0.7661675  0.7467019  0.5107594

