32 
charge = 0 
 Al 
  0.9974729  0.9838065  0.9966846

 Al 
  0.0002030  0.2341802  0.2212230

 Al 
  0.2639857  0.0034850  0.2554131

 Al 
  0.2509603  0.2505012  0.0242550

 Al 
  0.4896329  0.9996213  0.9972427

 Al 
  0.5078288  0.2527944  0.2475806

 Al 
  0.7670004  0.9916749  0.2430758

 Al 
  0.7576048  0.2514801  0.9962254

 Al 
  0.0021138  0.4900215  0.0019269

 Al 
  0.0058685  0.7315801  0.2527697

 Al 
  0.2397307  0.4933679  0.2437491

 Al 
  0.2501918  0.7688642  0.0126256

 Al 
  0.0080763  0.9872519  0.4897121

 Al 
  0.0067002  0.2481313  0.7414472

 Al 
  0.2502104  0.0024900  0.7508564

 Al 
  0.2342607  0.2649535  0.4881862

 Al 
  0.0090354  0.4865774  0.4847235

 Al 
  0.0123199  0.7595577  0.7544082

 Al 
  0.2560096  0.5213442  0.7726264

 Al 
  0.2536731  0.7560170  0.5135216

 Al 
  0.4975781  0.4996362  0.0070690

 Al 
  0.5013638  0.7615774  0.2357878

 Al 
  0.7456364  0.4874189  0.2437355

 Al 
  0.7526397  0.7443456  0.9934434

 Al 
  0.4779132  0.0114536  0.5113596

 Al 
  0.4734394  0.2532362  0.7563413

 Al 
  0.7534342  0.0185684  0.7707292

 Al 
  0.7382704  0.2435176  0.5151045

 Al 
  0.4949037  0.4946562  0.4877023

 Al 
  0.4890835  0.7672516  0.7432677

 Al 
  0.7467823  0.4939706  0.7370303

 Al 
  0.7660772  0.7466697  0.5101777

