32 
charge = 0 
 Al 
  0.9959358  0.9892159  0.9950027

 Al 
  0.0025976  0.2258415  0.2223603

 Al 
  0.2654683  0.0049230  0.2536372

 Al 
  0.2496052  0.2600738  0.0175338

 Al 
  0.4878496  0.9953765  0.9906057

 Al 
  0.5050208  0.2545282  0.2464408

 Al 
  0.7718442  0.9928580  0.2491721

 Al 
  0.7479395  0.2497017  0.0023860

 Al 
  0.9940387  0.4880699  0.0039689

 Al 
  0.0027808  0.7297720  0.2548240

 Al 
  0.2382419  0.4914806  0.2466586

 Al 
  0.2439817  0.7679137  0.0023031

 Al 
  0.0077892  0.9808066  0.4926291

 Al 
  0.0088226  0.2557250  0.7448777

 Al 
  0.2432318  0.9921724  0.7408656

 Al 
  0.2446649  0.2700077  0.4913012

 Al 
  0.0018304  0.4892938  0.4861356

 Al 
  0.0126850  0.7526075  0.7557510

 Al 
  0.2531867  0.5225521  0.7643706

 Al 
  0.2595503  0.7607260  0.5126467

 Al 
  0.5096517  0.4983503  0.0093721

 Al 
  0.5007326  0.7668618  0.2440300

 Al 
  0.7552411  0.4862358  0.2540382

 Al 
  0.7621157  0.7450559  0.9953802

 Al 
  0.4816754  0.0118534  0.5083672

 Al 
  0.4694372  0.2595218  0.7521063

 Al 
  0.7479481  0.0126417  0.7721227

 Al 
  0.7343572  0.2367494  0.5124264

 Al 
  0.4922405  0.4925115  0.4860155

 Al 
  0.4964160  0.7777462  0.7407158

 Al 
  0.7475422  0.4909905  0.7355663

 Al 
  0.7655735  0.7478355  0.5163878

