32 
charge = 0 
 Al 
  0.9962898  0.9864103  0.9956351

 Al 
  0.0016645  0.2293760  0.2206450

 Al 
  0.2653185  0.0043203  0.2545196

 Al 
  0.2498936  0.2560566  0.0217328

 Al 
  0.4882914  0.9968393  0.9934125

 Al 
  0.5064044  0.2542448  0.2469073

 Al 
  0.7703530  0.9924855  0.2461673

 Al 
  0.7527462  0.2503527  0.9996312

 Al 
  0.9978491  0.4886107  0.0034429

 Al 
  0.0042349  0.7299812  0.2541830

 Al 
  0.2382729  0.4917393  0.2453839

 Al 
  0.2466697  0.7689520  0.0069093

 Al 
  0.0081073  0.9830751  0.4911304

 Al 
  0.0077917  0.2522697  0.7431897

 Al 
  0.2468863  0.9960658  0.7449953

 Al 
  0.2395970  0.2684657  0.4895030

 Al 
  0.0056767  0.4879177  0.4848943

 Al 
  0.0131392  0.7561692  0.7552869

 Al 
  0.2544515  0.5226189  0.7685053

 Al 
  0.2570232  0.7592768  0.5139560

 Al 
  0.5042424  0.4986882  0.0086493

 Al 
  0.5008255  0.7648767  0.2397542

 Al 
  0.7506522  0.4865229  0.2491597

 Al 
  0.7579612  0.7448542  0.9944347

 Al 
  0.4791359  0.0115019  0.5102272

 Al 
  0.4709519  0.2564341  0.7540196

 Al 
  0.7506089  0.0159361  0.7722687

 Al 
  0.7357717  0.2399547  0.5140624

 Al 
  0.4933815  0.4930053  0.4863980

 Al 
  0.4922479  0.7737166  0.7413928

 Al 
  0.7472588  0.4922021  0.7357779

 Al 
  0.7662975  0.7470756  0.5138236

