32 
charge = 0 
 Al 
  0.9959940  0.9879956  0.9952403

 Al 
  0.0022487  0.2271880  0.2213665

 Al 
  0.2655401  0.0046904  0.2540221

 Al 
  0.2496386  0.2585367  0.0195164

 Al 
  0.4879548  0.9958430  0.9916811

 Al 
  0.5056062  0.2545381  0.2466190

 Al 
  0.7714234  0.9927578  0.2478986

 Al 
  0.7499765  0.2499369  0.0012858

 Al 
  0.9956128  0.4882110  0.0038463

 Al 
  0.0033736  0.7297003  0.2546384

 Al 
  0.2381045  0.4914274  0.2461598

 Al 
  0.2450213  0.7684855  0.0041248

 Al 
  0.0079662  0.9815554  0.4919818

 Al 
  0.0083981  0.2543401  0.7441711

 Al 
  0.2448196  0.9935164  0.7424261

 Al 
  0.2425635  0.2695721  0.4904770

 Al 
  0.0035048  0.4887233  0.4854772

 Al 
  0.0130390  0.7541520  0.7556062

 Al 
  0.2536768  0.5227278  0.7661353

 Al 
  0.2585615  0.7603324  0.5134201

 Al 
  0.5074910  0.4984073  0.0091629

 Al 
  0.5007227  0.7661675  0.2421811

 Al 
  0.7533414  0.4863002  0.2520148

 Al 
  0.7604809  0.7450077  0.9949718

 Al 
  0.4804453  0.0116628  0.5092458

 Al 
  0.4699767  0.2582323  0.7528736

 Al 
  0.7490508  0.0141033  0.7723751

 Al 
  0.7348275  0.2380687  0.5131825

 Al 
  0.4926699  0.4925759  0.4860725

 Al 
  0.4945275  0.7763230  0.7408730

 Al 
  0.7474469  0.4914509  0.7355416

 Al 
  0.7659955  0.7474717  0.5154126

