32 
charge = 0 
 Al 
  0.9959594  0.9883991  0.9951574

 Al 
  0.0023724  0.2267115  0.2216561

 Al 
  0.2655388  0.0047720  0.2538958

 Al 
  0.2496139  0.2590775  0.0188852

 Al 
  0.4879078  0.9956611  0.9913024

 Al 
  0.5054106  0.2545555  0.2465559

 Al 
  0.7715992  0.9928011  0.2483243

 Al 
  0.7492946  0.2498527  0.0016645

 Al 
  0.9950795  0.4881503  0.0039020

 Al 
  0.0031706  0.7296990  0.2547139

 Al 
  0.2381281  0.4914187  0.2463331

 Al 
  0.2446562  0.7683159  0.0034936

 Al 
  0.0079142  0.9812695  0.4921959

 Al 
  0.0085429  0.2548166  0.7444087

 Al 
  0.2442936  0.9930152  0.7418742

 Al 
  0.2432763  0.2697527  0.4907418

 Al 
  0.0029503  0.4889164  0.4856752

 Al 
  0.0129474  0.7536409  0.7556631

 Al 
  0.2535048  0.5226919  0.7655475

 Al 
  0.2589055  0.7605007  0.5131974

 Al 
  0.5082347  0.4983726  0.0092483

 Al 
  0.5007178  0.7664237  0.2427949

 Al 
  0.7539850  0.4862705  0.2526991

 Al 
  0.7610490  0.7450299  0.9951067

 Al 
  0.4808314  0.0117197  0.5089661

 Al 
  0.4697787  0.2586667  0.7526100

 Al 
  0.7486770  0.0136231  0.7723219

 Al 
  0.7346480  0.2376207  0.5129387

 Al 
  0.4925165  0.4925301  0.4860366

 Al 
  0.4951401  0.7768464  0.7408000

 Al 
  0.7474840  0.4912888  0.7355317

 Al 
  0.7658742  0.7475868  0.5157566

