32 
charge = 0 
 Al 
  0.9959457  0.9896317  0.9949297

 Al 
  0.0027016  0.2254468  0.2227736

 Al 
  0.2654015  0.0049936  0.2535035

 Al 
  0.2496201  0.2605317  0.0168110

 Al 
  0.4878360  0.9952713  0.9902851

 Al 
  0.5048277  0.2544837  0.2463876

 Al 
  0.7719148  0.9928716  0.2495953

 Al 
  0.7472650  0.2496324  0.0027288

 Al 
  0.9935288  0.4880501  0.0039825

 Al 
  0.0025939  0.7298475  0.2548587

 Al 
  0.2383323  0.4915487  0.2468108

 Al 
  0.2436711  0.7676811  0.0017425

 Al 
  0.0077174  0.9806260  0.4928481

 Al 
  0.0089575  0.2561581  0.7451092

 Al 
  0.2426947  0.9918284  0.7404077

 Al 
  0.2453418  0.2700832  0.4915945

 Al 
  0.0012673  0.4894745  0.4863980

 Al 
  0.0125142  0.7520828  0.7557794

 Al 
  0.2530419  0.5224494  0.7637803

 Al 
  0.2598535  0.7607841  0.5123187

 Al 
  0.5103287  0.4983627  0.0094117

 Al 
  0.5007512  0.7670449  0.2446537

 Al 
  0.7558549  0.4862309  0.2546965

 Al 
  0.7626182  0.7450584  0.9955200

 Al 
  0.4821308  0.0119313  0.5080479

 Al 
  0.4692924  0.2599401  0.7518650

 Al 
  0.7475929  0.0121405  0.7719779

 Al 
  0.7342446  0.2363249  0.5121566

 Al 
  0.4921192  0.4925400  0.4860292

 Al 
  0.4970781  0.7781261  0.7407034

 Al 
  0.7475657  0.4908544  0.7356109

 Al 
  0.7653965  0.7479692  0.5166774

