32 
charge = 0 
 Al 
  0.9966004  0.9937701  0.9942948

 Al 
  0.0034899  0.2230558  0.2284070

 Al 
  0.2638434  0.0054725  0.2520841

 Al 
  0.2502302  0.2637270  0.0088263

 Al 
  0.4880439  0.9953715  0.9881998

 Al 
  0.5030159  0.2532734  0.2460126

 Al 
  0.7710683  0.9925177  0.2535048

 Al 
  0.7411650  0.2490421  0.0054564

 Al 
  0.9890723  0.4883112  0.0035926

 Al 
  0.0011113  0.7316692  0.2546359

 Al 
  0.2400252  0.4932800  0.2479221

 Al 
  0.2416291  0.7646156  0.9975385

 Al 
  0.0067410  0.9803896  0.4949767

 Al 
  0.0099946  0.2595193  0.7471301

 Al 
  0.2376590  0.9908334  0.7373880

 Al 
  0.2509480  0.2693295  0.4947193

 Al 
  0.9960732  0.4908990  0.4898433

 Al 
  0.0096963  0.7468863  0.7555752

 Al 
  0.2521026  0.5206128  0.7581357

 Al 
  0.2621875  0.7597384  0.5077174

 Al 
  0.5157084  0.4993243  0.0091691

 Al 
  0.5012784  0.7676947  0.2505792

 Al 
  0.7610923  0.4864623  0.2605143

 Al 
  0.7663631  0.7448468  0.9970199

 Al 
  0.4872890  0.0128669  0.5045245

 Al 
  0.4687379  0.2635414  0.7499295

 Al 
  0.7447082  0.0073140  0.7693716

 Al 
  0.7342879  0.2327855  0.5093176

 Al 
  0.4915660  0.4939644  0.4868546

 Al 
  0.5038055  0.7795419  0.7413804

 Al 
  0.7475694  0.4898792  0.7367828

 Al 
  0.7628991  0.7494654  0.5185956

