32 
charge = 0 
 Al 
  0.9961895  0.9918234  0.9945844

 Al 
  0.0031632  0.2238590  0.2254678

 Al 
  0.2647505  0.0052943  0.2527721

 Al 
  0.2498651  0.2624882  0.0127209

 Al 
  0.4878905  0.9951005  0.9889572

 Al 
  0.5038451  0.2539837  0.2461586

 Al 
  0.7717749  0.9927838  0.2517351

 Al 
  0.7438951  0.2493181  0.0043117

 Al 
  0.9910413  0.4881070  0.0038661

 Al 
  0.0017264  0.7306024  0.2548475

 Al 
  0.2390835  0.4922677  0.2474803

 Al 
  0.2423717  0.7662034  0.9992389

 Al 
  0.0072521  0.9801953  0.4939867

 Al 
  0.0095787  0.2581345  0.7462390

 Al 
  0.2399448  0.9908259  0.7385092

 Al 
  0.2485595  0.2699792  0.4932194

 Al 
  0.9984048  0.4903124  0.4880550

 Al 
  0.0112433  0.7493218  0.7557769

 Al 
  0.2524405  0.5216239  0.7607433

 Al 
  0.2612222  0.7605440  0.5101369

 Al 
  0.5134498  0.4986931  0.0094030

 Al 
  0.5009628  0.7676217  0.2478615

 Al 
  0.7588189  0.4863051  0.2579303

 Al 
  0.7648557  0.7449903  0.9962873

 Al 
  0.4847569  0.0124053  0.5062373

 Al 
  0.4688097  0.2619734  0.7507475

 Al 
  0.7459160  0.0095280  0.7708232

 Al 
  0.7340243  0.2343015  0.5106777

 Al 
  0.4916836  0.4930635  0.4863361

 Al 
  0.5006485  0.7793500  0.7409126

 Al 
  0.7476140  0.4902653  0.7360898

 Al 
  0.7642171  0.7487327  0.5178877

