32 
charge = 0 
 Al 
  0.9968714  0.9948233  0.9941352

 Al 
  0.0036471  0.2228194  0.2301483

 Al 
  0.2632568  0.0055356  0.2516979

 Al 
  0.2504542  0.2642555  0.0066655

 Al 
  0.4881454  0.9956388  0.9879239

 Al 
  0.5025791  0.2528254  0.2459519

 Al 
  0.7705114  0.9923160  0.2544119

 Al 
  0.7397901  0.2488751  0.0059948

 Al 
  0.9880872  0.4884535  0.0034058

 Al 
  0.0008341  0.7323623  0.2544713

 Al 
  0.2406057  0.4939260  0.2481152

 Al 
  0.2413593  0.7636788  0.9967749

 Al 
  0.0064341  0.9806606  0.4955064

 Al 
  0.0101641  0.2601480  0.7475744

 Al 
  0.2364970  0.9910871  0.7369412

 Al 
  0.2520729  0.2688159  0.4955349

 Al 
  0.9949062  0.4911650  0.4909076

 Al 
  0.0087397  0.7455782  0.7553970

 Al 
  0.2519789  0.5200015  0.7567509

 Al 
  0.2626368  0.7591406  0.5062819

 Al 
  0.5167677  0.4997810  0.0089847

 Al 
  0.5014900  0.7675981  0.2519925

 Al 
  0.7621949  0.4865675  0.2618175

 Al 
  0.7670251  0.7447540  0.9974395

 Al 
  0.4886949  0.0131107  0.5035815

 Al 
  0.4688221  0.2643025  0.7495384

 Al 
  0.7441637  0.0061754  0.7684681

 Al 
  0.7345824  0.2320690  0.5085763

 Al 
  0.4915957  0.4945832  0.4872036

 Al 
  0.5054651  0.7793711  0.7417083

 Al 
  0.7475174  0.4897072  0.7372345

 Al 
  0.7621083  0.7498713  0.5188629

