32 
charge = 0 
 Al 
  0.9964816  0.9932639  0.9943703

 Al 
  0.0034107  0.2232167  0.2276051

 Al 
  0.2641033  0.0054329  0.2522660

 Al 
  0.2501262  0.2634412  0.0098535

 Al 
  0.4879994  0.9952700  0.9883644

 Al 
  0.5032288  0.2534751  0.2460460

 Al 
  0.7712947  0.9926019  0.2530555

 Al 
  0.7418519  0.2491164  0.0051780

 Al 
  0.9895649  0.4882493  0.0036743

 Al 
  0.0012586  0.7313635  0.2547052

 Al 
  0.2397616  0.4929904  0.2478194

 Al 
  0.2417900  0.7650488  0.9979407

 Al 
  0.0068808  0.9802980  0.4947206

 Al 
  0.0098980  0.2591889  0.7469073

 Al 
  0.2382370  0.9907665  0.7376392

 Al 
  0.2503676  0.2695399  0.4943283

 Al 
  0.9966573  0.4907591  0.4893545

 Al 
  0.0101294  0.7475174  0.7556433

 Al 
  0.2521756  0.5208938  0.7588065

 Al 
  0.2619549  0.7599896  0.5083795

 Al 
  0.5151601  0.4991325  0.0092458

 Al 
  0.5011868  0.7677083  0.2498849

 Al 
  0.7605317  0.4864153  0.2598658

 Al 
  0.7660079  0.7448889  0.9968244

 Al 
  0.4866207  0.0127469  0.5049750

 Al 
  0.4687268  0.2631541  0.7501287

 Al 
  0.7449965  0.0078771  0.7697787

 Al 
  0.7341815  0.2331555  0.5096728

 Al 
  0.4915734  0.4936971  0.4867024

 Al 
  0.5029937  0.7795592  0.7412393

 Al 
  0.7475868  0.4899708  0.7365836

 Al 
  0.7632605  0.7492723  0.5184397

