32 
charge = 0 
 Al 
  0.9967316  0.9942899  0.9942169

 Al 
  0.0035691  0.2229234  0.2292547

 Al 
  0.2635612  0.0055059  0.2518947

 Al 
  0.2503391  0.2639981  0.0077632

 Al 
  0.4880934  0.9954940  0.9880538

 Al 
  0.5027994  0.2530555  0.2459816

 Al 
  0.7708059  0.9924224  0.2539565

 Al 
  0.7404782  0.2489617  0.0057287

 Al 
  0.9885798  0.4883793  0.0035035

 Al 
  0.0009702  0.7320021  0.2545579

 Al 
  0.2403062  0.4935919  0.2480211

 Al 
  0.2414856  0.7641590  0.9971499

 Al 
  0.0065925  0.9805109  0.4952391

 Al 
  0.0100837  0.2598399  0.7473529

 Al 
  0.2370786  0.9909398  0.7371553

 Al 
  0.2515173  0.2690882  0.4951228

 Al 
  0.9954878  0.4910351  0.4903606

 Al 
  0.0092335  0.7462403  0.7554923

 Al 
  0.2520370  0.5203158  0.7574501

 Al 
  0.2624152  0.7594550  0.5070170

 Al 
  0.5162442  0.4995396  0.0090825

 Al 
  0.5013799  0.7676575  0.2512809

 Al 
  0.7616479  0.4865130  0.2611653

 Al 
  0.7667021  0.7448022  0.9972254

 Al 
  0.4879808  0.0129895  0.5040604

 Al 
  0.4687689  0.2639238  0.7497327

 Al 
  0.7444297  0.0067460  0.7689347

 Al 
  0.7344203  0.2324229  0.5089513

 Al 
  0.4915722  0.4942602  0.4870229

 Al 
  0.5046297  0.7794787  0.7415363

 Al 
  0.7475459  0.4897926  0.7370006

 Al 
  0.7625142  0.7496646  0.5187367

