32 
charge = 0 
 Al 
  0.9971808  0.9959309  0.9939632

 Al 
  0.0037993  0.2227018  0.2320652

 Al 
  0.2625835  0.0055777  0.2512846

 Al 
  0.2507005  0.2647307  0.0043785

 Al 
  0.4882580  0.9959903  0.9877184

 Al 
  0.5021237  0.2523254  0.2459012

 Al 
  0.7698196  0.9920672  0.2553252

 Al 
  0.7384189  0.2486795  0.0065108

 Al 
  0.9871083  0.4886132  0.0031904

 Al 
  0.0005817  0.7331605  0.2542708

 Al 
  0.2412541  0.4946587  0.2482885

 Al 
  0.2411601  0.7626479  0.9960683

 Al 
  0.0060938  0.9810430  0.4960596

 Al 
  0.0103015  0.2607309  0.7480162

 Al 
  0.2353349  0.9914955  0.7365650

 Al 
  0.2531409  0.2681798  0.4963826

 Al 
  0.9937540  0.4914126  0.4920870

 Al 
  0.0076642  0.7442144  0.7551656

 Al 
  0.2518823  0.5193283  0.7553116

 Al 
  0.2630600  0.7584241  0.5047052

 Al 
  0.5177788  0.5003379  0.0087595

 Al 
  0.5017375  0.7674137  0.2534342

 Al 
  0.7632630  0.4866875  0.2631231

 Al 
  0.7676229  0.7446537  0.9978974

 Al 
  0.4901799  0.0133521  0.5025902

 Al 
  0.4690003  0.2650413  0.7491609

 Al 
  0.7436736  0.0050282  0.7674521

 Al 
  0.7349970  0.2313920  0.5077979

 Al 
  0.4916922  0.4953134  0.4876095

 Al 
  0.5071556  0.7790196  0.7420945

 Al 
  0.7474444  0.4895475  0.7377543

 Al 
  0.7612334  0.7503007  0.5190671

