32 
charge = 0 
 Al 
  0.9984543  0.0001052  0.9932652

 Al 
  0.0042783  0.2232810  0.2398470

 Al 
  0.2596555  0.0055195  0.2496795

 Al 
  0.2515940  0.2659831  0.9958133

 Al 
  0.4886973  0.9977798  0.9875625

 Al 
  0.5004109  0.2503527  0.2458158

 Al 
  0.7664695  0.9908866  0.2583870

 Al 
  0.7339315  0.2477043  0.0080627

 Al 
  0.9839080  0.4891973  0.0022994

 Al 
  0.9999592  0.7366529  0.2533934

 Al 
  0.2439260  0.4977080  0.2487092

 Al 
  0.2410574  0.7584550  0.9940560

 Al 
  0.0046681  0.9831419  0.4981226

 Al 
  0.0104153  0.2622989  0.7494728

 Al 
  0.2315591  0.9938852  0.7357841

 Al 
  0.2562175  0.2651069  0.4993936

 Al 
  0.9901342  0.4921229  0.4969742

 Al 
  0.0031805  0.7392320  0.7539367

 Al 
  0.2517264  0.5166836  0.7500285

 Al 
  0.2642617  0.7552312  0.4984382

 Al 
  0.5207564  0.5030469  0.0077471

 Al 
  0.5028848  0.7660747  0.2584179

 Al 
  0.7664942  0.4871912  0.2675078

 Al 
  0.7690968  0.7443481  0.9997686

 Al 
  0.4956784  0.0140228  0.4989666

 Al 
  0.4704891  0.2672900  0.7479692

 Al 
  0.7425746  0.0012202  0.7632085

 Al 
  0.7374004  0.2295419  0.5049342

 Al 
  0.4926068  0.4985855  0.4893780

 Al 
  0.5128348  0.7764009  0.7438320

 Al 
  0.7470199  0.4890698  0.7400104

 Al 
  0.7576593  0.7518811  0.5192169

