32 
charge = 0 
 Al 
  0.0001881  0.0058326  0.9922157

 Al 
  0.0046198  0.2264442  0.2514319

 Al 
  0.2549342  0.0047968  0.2474098

 Al 
  0.2523972  0.2668061  0.9849265

 Al 
  0.4893062  0.0009467  0.9885501

 Al 
  0.4979320  0.2479617  0.2460448

 Al 
  0.7604537  0.9889226  0.2613757

 Al 
  0.7297362  0.2455906  0.0092446

 Al 
  0.9809081  0.4895810  0.0010915

 Al 
  0.9999814  0.7423333  0.2522672

 Al 
  0.2479098  0.5020469  0.2487426

 Al 
  0.2422652  0.7521447  0.9923556

 Al 
  0.0023625  0.9871863  0.5009480

 Al 
  0.0092879  0.2629189  0.7509826

 Al 
  0.2282177  0.9981387  0.7359475

 Al 
  0.2581407  0.2596864  0.5025642

 Al 
  0.9873298  0.4927652  0.5044924

 Al 
  0.9965744  0.7331407  0.7515148

 Al 
  0.2517252  0.5132592  0.7431352

 Al 
  0.2646911  0.7505049  0.4898656

 Al 
  0.5228120  0.5081568  0.0062460

 Al 
  0.5050839  0.7627989  0.2637419

 Al 
  0.7687503  0.4880414  0.2721053

 Al 
  0.7691835  0.7445077  0.0026954

 Al 
  0.5024244  0.0139263  0.4946933

 Al 
  0.4751126  0.2688889  0.7467365

 Al 
  0.7431748  0.9976635  0.7568536

 Al 
  0.7427330  0.2291161  0.5013613

 Al 
  0.4953059  0.5037201  0.4922145

 Al 
  0.5180597  0.7699285  0.7468492

 Al 
  0.7459829  0.4885587  0.7436785

 Al 
  0.7524170  0.7536855  0.5177182

