32 
charge = 0 
 Al 
  0.9998849  0.0047683  0.9924113

 Al 
  0.0045975  0.2256361  0.2492203

 Al 
  0.2558611  0.0050022  0.2478343

 Al 
  0.2523068  0.2667145  0.9868212

 Al 
  0.4891862  0.0003242  0.9882753

 Al 
  0.4984085  0.2483417  0.2459594

 Al 
  0.7616801  0.9893000  0.2609500

 Al 
  0.7303091  0.2460596  0.0091196

 Al 
  0.9813227  0.4895723  0.0013007

 Al 
  0.9998923  0.7412145  0.2524405

 Al 
  0.2471548  0.5012611  0.2487872

 Al 
  0.2419274  0.7533575  0.9926080

 Al 
  0.0028291  0.9863546  0.5004220

 Al 
  0.0096443  0.2629511  0.7507475

 Al 
  0.2286397  0.9973244  0.7358151

 Al 
  0.2579947  0.2607792  0.5020989

 Al 
  0.9876231  0.4926600  0.5030469

 Al 
  0.9978033  0.7341716  0.7520209

 Al 
  0.2517227  0.5138496  0.7443815

 Al 
  0.2647542  0.7513601  0.4914002

 Al 
  0.5226251  0.5070888  0.0065244

 Al 
  0.5046037  0.7635340  0.2629288

 Al 
  0.7685511  0.4878607  0.2713937

 Al 
  0.7693592  0.7443951  0.0021187

 Al 
  0.5012784  0.0140686  0.4953950

 Al 
  0.4739629  0.2687429  0.7469395

 Al 
  0.7428543  0.9981412  0.7580528

 Al 
  0.7415573  0.2289701  0.5019801

 Al 
  0.4946599  0.5027548  0.4916551

 Al 
  0.5173828  0.7713913  0.7462230

 Al 
  0.7462267  0.4886503  0.7429459

 Al 
  0.7533983  0.7534033  0.5181798

