32 
charge = 0 
 Al 
  0.9992030  0.0025061  0.9928320

 Al 
  0.0044800  0.2242661  0.2446018

 Al 
  0.2577595  0.0053215  0.2487340

 Al 
  0.2520160  0.2664299  0.9910685

 Al 
  0.4889461  0.9990397  0.9878273

 Al 
  0.4993973  0.2492637  0.2458492

 Al 
  0.7641268  0.9900908  0.2598349

 Al 
  0.7318610  0.2469395  0.0087013

 Al 
  0.9824316  0.4894473  0.0017759

 Al 
  0.9998366  0.7389288  0.2528773

 Al 
  0.2455671  0.4995458  0.2488020

 Al 
  0.2413841  0.7558772  0.9932305

 Al 
  0.0037572  0.9847013  0.4993057

 Al 
  0.0101592  0.2627865  0.7501757

 Al 
  0.2298599  0.9956079  0.7356901

 Al 
  0.2573548  0.2629771  0.5009034

 Al 
  0.9886132  0.4924212  0.5000359

 Al 
  0.0004307  0.7365353  0.7530147

 Al 
  0.2517165  0.5151849  0.7470843

 Al 
  0.2646503  0.7532338  0.4947750

 Al 
  0.5219197  0.5049973  0.0071197

 Al 
  0.5037003  0.7649015  0.2609091

 Al 
  0.7677763  0.4875167  0.2696537

 Al 
  0.7694248  0.7442973  0.0009443

 Al 
  0.4986622  0.0141651  0.4970422

 Al 
  0.4719940  0.2681897  0.7474073

 Al 
  0.7425028  0.9994542  0.7605849

 Al 
  0.7393446  0.2290221  0.5033711

 Al 
  0.4935176  0.5006992  0.4905166

 Al 
  0.5154646  0.7740941  0.7449990

 Al 
  0.7466611  0.4888471  0.7414695

 Al 
  0.7554836  0.7527127  0.5188629

