32 
charge = 0 
 Al 
  0.9988342  0.0013168  0.9930486

 Al 
  0.0043884  0.2237204  0.2422269

 Al 
  0.2587149  0.0054354  0.2492042

 Al 
  0.2518192  0.2662282  0.9933939

 Al 
  0.4888223  0.9983998  0.9876677

 Al 
  0.4999022  0.2497921  0.2458232

 Al 
  0.7653210  0.9904930  0.2591493

 Al 
  0.7328362  0.2473392  0.0084080

 Al 
  0.9831271  0.4893359  0.0020333

 Al 
  0.9998750  0.7377815  0.2531286

 Al 
  0.2447478  0.4986337  0.2487686

 Al 
  0.2411898  0.7571667  0.9936154

 Al 
  0.0042164  0.9839018  0.4987191

 Al 
  0.0103188  0.2625835  0.7498391

 Al 
  0.2306544  0.9947354  0.7357074

 Al 
  0.2568499  0.2640599  0.5001819

 Al 
  0.9893099  0.4922813  0.4985001

 Al 
  0.0018007  0.7378508  0.7534899

 Al 
  0.2517177  0.5159200  0.7485335

 Al 
  0.2644881  0.7542275  0.4965843

 Al 
  0.5213937  0.5039961  0.0074316

 Al 
  0.5032808  0.7655178  0.2597161

 Al 
  0.7671972  0.4873509  0.2686266

 Al 
  0.7693109  0.7443060  0.0003539

 Al 
  0.4972068  0.0141218  0.4979766

 Al 
  0.4711821  0.2677825  0.7476771

 Al 
  0.7424843  0.0002846  0.7618942

 Al 
  0.7383310  0.2292250  0.5041347

 Al 
  0.4930300  0.4996399  0.4899436

 Al 
  0.5142307  0.7753069  0.7444062

 Al 
  0.7468492  0.4889548  0.7407331

 Al 
  0.7565677  0.7523105  0.5190807

