32 
charge = 0 
 Al 
  0.9995557  0.0036582  0.9926179

 Al 
  0.0045505  0.2249072  0.2469407

 Al 
  0.2568041  0.0051767  0.2482773

 Al 
  0.2521793  0.2665895  0.9888706

 Al 
  0.4890661  0.9996857  0.9880328

 Al 
  0.4988973  0.2487773  0.2458938

 Al 
  0.7629078  0.9896911  0.2604364

 Al 
  0.7310170  0.2465113  0.0089389

 Al 
  0.9818301  0.4895265  0.0015296

 Al 
  0.9998428  0.7400772  0.2526459

 Al 
  0.2463727  0.5004257  0.2488070

 Al 
  0.2416328  0.7546037  0.9928964

 Al 
  0.0032944  0.9855230  0.4998738

 Al 
  0.0099352  0.2629078  0.7504789

 Al 
  0.2291879  0.9964767  0.7357272

 Al 
  0.2577360  0.2618794  0.5015445

 Al 
  0.9880501  0.4925462  0.5015581

 Al 
  0.9990929  0.7353052  0.7525234

 Al 
  0.2517202  0.5144919  0.7456982

 Al 
  0.2647394  0.7522722  0.4930399

 Al 
  0.5223293  0.5060319  0.0068153

 Al 
  0.5041421  0.7642369  0.2619846

 Al 
  0.7682281  0.4876863  0.2705770

 Al 
  0.7694409  0.7443258  0.0015346

 Al 
  0.5000223  0.0141478  0.4961796

 Al 
  0.4729221  0.2685102  0.7471623

 Al 
  0.7426278  0.9987377  0.7592990

 Al 
  0.7404237  0.2289379  0.5026509

 Al 
  0.4940622  0.5017437  0.4910896

 Al 
  0.5165177  0.7727835  0.7456054

 Al 
  0.7464519  0.4887468  0.7422083

 Al 
  0.7544230  0.7530778  0.5185622

