32 
charge = 0 
 Al 
  0.0013527  0.0110007  0.9914497

 Al 
  0.0042783  0.2322595  0.2625501

 Al 
  0.2501040  0.0031706  0.2453431

 Al 
  0.2522969  0.2668890  0.9770494

 Al 
  0.4900327  0.0039453  0.9904262

 Al 
  0.4954940  0.2468776  0.2469259

 Al 
  0.7538303  0.9872927  0.2622482

 Al 
  0.7288191  0.2428296  0.0090639

 Al 
  0.9801384  0.4890104  0.0003973

 Al 
  0.0010853  0.7481424  0.2519393

 Al 
  0.2516361  0.5054341  0.2481375

 Al 
  0.2446933  0.7459618  0.9913197

 Al 
  0.9996485  0.9916861  0.5035332

 Al 
  0.0060344  0.2614796  0.7517264

 Al 
  0.2280481  0.0018390  0.7373162

 Al 
  0.2572595  0.2537572  0.5036100

 Al 
  0.9878929  0.4934149  0.5114945

 Al 
  0.9908272  0.7292696  0.7487736

 Al 
  0.2516917  0.5109500  0.7372605

 Al 
  0.2628929  0.7468690  0.4833127

 Al 
  0.5220781  0.5141317  0.0049800

 Al 
  0.5081271  0.7581865  0.2659212

 Al 
  0.7678580  0.4892468  0.2743094

 Al 
  0.7667071  0.7460287  0.0057807

 Al 
  0.5069229  0.0121133  0.4922553

 Al 
  0.4835379  0.2682305  0.7458146

 Al 
  0.7463678  0.9968900  0.7510297

 Al 
  0.7498478  0.2317422  0.4987525

 Al 
  0.4996349  0.5081345  0.4952440

 Al 
  0.5187441  0.7607210  0.7505520

 Al 
  0.7443035  0.4880724  0.7477241

 Al 
  0.7478182  0.7544243  0.5137605

