32 
charge = 0 
 Al 
  0.0009294  0.0087706  0.9917207

 Al 
  0.0045295  0.2293179  0.2576704

 Al 
  0.2522610  0.0040109  0.2462329

 Al 
  0.2524578  0.2669249  0.9801421

 Al 
  0.4896812  0.0026793  0.9895117

 Al 
  0.4965744  0.2471586  0.2464346

 Al 
  0.7568190  0.9879226  0.2621529

 Al 
  0.7287882  0.2441142  0.0093151

 Al 
  0.9801903  0.4893929  0.0006076

 Al 
  0.0004641  0.7455609  0.2519553

 Al 
  0.2500161  0.5040914  0.2484840

 Al 
  0.2434793  0.7486931  0.9917541

 Al 
  0.0009269  0.9896490  0.5024058

 Al 
  0.0078028  0.2623942  0.7514987

 Al 
  0.2276818  0.0003280  0.7365712

 Al 
  0.2579786  0.2564576  0.5034392

 Al 
  0.9872036  0.4930820  0.5085107

 Al 
  0.9932454  0.7306618  0.7500037

 Al 
  0.2517165  0.5118175  0.7397715

 Al 
  0.2640265  0.7483083  0.4859116

 Al 
  0.5227650  0.5114004  0.0054997

 Al 
  0.5066531  0.7604203  0.2653953

 Al 
  0.7686575  0.4886379  0.2736424

 Al 
  0.7681340  0.7451314  0.0043822

 Al 
  0.5052324  0.0131442  0.4930697

 Al 
  0.4792411  0.2688345  0.7462131

 Al 
  0.7446389  0.9968851  0.7535370

 Al 
  0.7464791  0.2301854  0.4997871

 Al 
  0.4975038  0.5063140  0.4938567

 Al 
  0.5190325  0.7651589  0.7487996

 Al 
  0.7451389  0.4882889  0.7458641

 Al 
  0.7497488  0.7542646  0.5158569

