32 
charge = 0 
 Al 
  0.0010272  0.0092297  0.9916551

 Al 
  0.0044924  0.2298636  0.2586629

 Al 
  0.2518279  0.0038550  0.2460497

 Al 
  0.2524392  0.2669261  0.9794639

 Al 
  0.4897480  0.0029454  0.9896874

 Al 
  0.4963566  0.2470732  0.2465200

 Al 
  0.7562200  0.9877791  0.2622123

 Al 
  0.7287374  0.2438617  0.0092854

 Al 
  0.9801421  0.4893322  0.0005507

 Al 
  0.0005730  0.7460831  0.2519343

 Al 
  0.2503478  0.5043859  0.2484233

 Al 
  0.2437082  0.7481387  0.9916663

 Al 
  0.0006782  0.9900562  0.5026360

 Al 
  0.0074910  0.2622469  0.7515593

 Al 
  0.2276954  0.0006522  0.7367049

 Al 
  0.2578746  0.2559205  0.5035122

 Al 
  0.9872853  0.4931414  0.5091344

 Al 
  0.9927392  0.7303351  0.7497550

 Al 
  0.2517115  0.5116219  0.7392542

 Al 
  0.2638434  0.7479927  0.4853435

 Al 
  0.5226734  0.5119437  0.0053883

 Al 
  0.5069353  0.7599958  0.2655611

 Al 
  0.7685486  0.4887493  0.2738181

 Al 
  0.7678877  0.7452812  0.0046607

 Al 
  0.5056148  0.0129647  0.4928667

 Al 
  0.4800344  0.2687553  0.7461326

 Al 
  0.7449495  0.9968417  0.7530197

 Al 
  0.7471338  0.2304490  0.4995631

 Al 
  0.4979085  0.5067026  0.4941302

 Al 
  0.5190510  0.7643075  0.7491399

 Al 
  0.7449817  0.4882444  0.7462316

 Al 
  0.7493429  0.7543203  0.5154770

