32 
charge = 0 
 Al 
  0.0007104  0.0078301  0.9918680

 Al 
  0.0045864  0.2282845  0.2556495

 Al 
  0.2531372  0.0043005  0.2466103

 Al 
  0.2524714  0.2669088  0.9815950

 Al 
  0.4895525  0.0021261  0.9891713

 Al 
  0.4970162  0.2473702  0.2462824

 Al 
  0.7580231  0.9882308  0.2619759

 Al 
  0.7289812  0.2446154  0.0093399

 Al 
  0.9803475  0.4894906  0.0007438

 Al 
  0.0002686  0.7445052  0.2520234

 Al 
  0.2493379  0.5034627  0.2485904

 Al 
  0.2430437  0.7498156  0.9919373

 Al 
  0.0014133  0.9888335  0.5019368

 Al 
  0.0083696  0.2626392  0.7513576

 Al 
  0.2277412  0.9996423  0.7363286

 Al 
  0.2581246  0.2575281  0.5032313

 Al 
  0.9871256  0.4929719  0.5072249

 Al 
  0.9942973  0.7313871  0.7505037

 Al 
  0.2517227  0.5122457  0.7408396

 Al 
  0.2643297  0.7489802  0.4871244

 Al 
  0.5228776  0.5103151  0.0057336

 Al 
  0.5061086  0.7612445  0.2649720

 Al 
  0.7687986  0.4884276  0.2732241

 Al 
  0.7685672  0.7448728  0.0038241

 Al 
  0.5043971  0.0134622  0.4935313

 Al 
  0.4777486  0.2689335  0.7463764

 Al 
  0.7440721  0.9970422  0.7545988

 Al 
  0.7451958  0.2297287  0.5002673

 Al 
  0.4967291  0.5055010  0.4933122

 Al 
  0.5188765  0.7668123  0.7481350

 Al 
  0.7454396  0.4883781  0.7451351

 Al 
  0.7505928  0.7541174  0.5165549

