32 
charge = 0 
 Al 
  0.0012041  0.0101270  0.9915400

 Al 
  0.0043971  0.2310170  0.2606208

 Al 
  0.2509653  0.0035258  0.2456920

 Al 
  0.2523811  0.2669162  0.9782003

 Al 
  0.4898866  0.0034590  0.9900512

 Al 
  0.4959235  0.2469469  0.2467093

 Al 
  0.7550245  0.9875179  0.2622704

 Al 
  0.7287214  0.2433493  0.0091963

 Al 
  0.9801025  0.4891862  0.0004579

 Al 
  0.0008143  0.7471165  0.2519195

 Al 
  0.2509987  0.5049366  0.2482897

 Al 
  0.2441872  0.7470447  0.9914942

 Al 
  0.0001720  0.9908705  0.5030877

 Al 
  0.0068054  0.2618979  0.7516571

 Al 
  0.2278117  0.0012697  0.7369945

 Al 
  0.2576048  0.2548451  0.5035988

 Al 
  0.9875340  0.4932689  0.5103398

 Al 
  0.9917615  0.7297547  0.7492612

 Al 
  0.2517016  0.5112655  0.7382444

 Al 
  0.2634127  0.7474048  0.4842805

 Al 
  0.5224222  0.5130365  0.0051767

 Al 
  0.5075182  0.7591146  0.2658024

 Al 
  0.7682528  0.4889869  0.2741052

 Al 
  0.7673358  0.7456252  0.0052188

 Al 
  0.5063128  0.0125662  0.4925214

 Al 
  0.4817175  0.2685350  0.7459742

 Al 
  0.7456252  0.9968232  0.7520110

 Al 
  0.7484728  0.2310480  0.4991399

 Al 
  0.4987488  0.5074427  0.4946822

 Al 
  0.5189718  0.7625514  0.7498342

 Al 
  0.7446525  0.4881578  0.7469717

 Al 
  0.7485607  0.7543971  0.5146589

