32 
charge = 0 
 Al 
  0.0016447  0.0138978  0.9913841

 Al 
  0.0036954  0.2373880  0.2691463

 Al 
  0.2470558  0.0017363  0.2441723

 Al 
  0.2518613  0.2666984  0.9738293

 Al 
  0.4906081  0.0054416  0.9918135

 Al 
  0.4939953  0.2471091  0.2479110

 Al 
  0.7496485  0.9868868  0.2614982

 Al 
  0.7300443  0.2409646  0.0083065

 Al 
  0.9808537  0.4882147  0.0004666

 Al 
  0.0022214  0.7516930  0.2522759

 Al 
  0.2537968  0.5067051  0.2474568

 Al 
  0.2466623  0.7422331  0.9906354

 Al 
  0.9976808  0.9945522  0.5050715

 Al 
  0.0026051  0.2594364  0.7517413

 Al 
  0.2298710  0.0034330  0.7386949

 Al 
  0.2555257  0.2498156  0.5030704

 Al 
  0.9899980  0.4941142  0.5150735

 Al 
  0.9878323  0.7283550  0.7471672

 Al 
  0.2516757  0.5101047  0.7339451

 Al 
  0.2603473  0.7454210  0.4806606

 Al 
  0.5201203  0.5179496  0.0044367

 Al 
  0.5104512  0.7545010  0.2653755

 Al 
  0.7657047  0.4904027  0.2743676

 Al 
  0.7639201  0.7479753  0.0077979

 Al 
  0.5084006  0.0101307  0.4919831

 Al 
  0.4910438  0.2664286  0.7452057

 Al 
  0.7494381  0.9977179  0.7477897

 Al 
  0.7549020  0.2349141  0.4976511

 Al 
  0.5030902  0.5101468  0.4973343

 Al 
  0.5168259  0.7537275  0.7532511

 Al 
  0.7429669  0.4878187  0.7505111

 Al 
  0.7455163  0.7540840  0.5099785

