32 
charge = 0 
 Al 
  0.0014739  0.0118534  0.9913878

 Al 
  0.0041372  0.2335961  0.2644572

 Al 
  0.2492401  0.0027895  0.2450027

 Al 
  0.2521905  0.2668494  0.9760049

 Al 
  0.4901861  0.0044070  0.9908136

 Al 
  0.4950658  0.2468677  0.2471697

 Al 
  0.7526348  0.9871108  0.2621442

 Al 
  0.7290295  0.2423024  0.0088931

 Al 
  0.9802497  0.4888087  0.0003688

 Al 
  0.0013824  0.7491622  0.2519950

 Al 
  0.2522623  0.5058747  0.2479667

 Al 
  0.2452255  0.7448889  0.9911403

 Al 
  0.9991077  0.9925041  0.5039738

 Al 
  0.0051742  0.2609883  0.7517672

 Al 
  0.2284070  0.0023600  0.7376702

 Al 
  0.2568425  0.2526546  0.5035444

 Al 
  0.9883607  0.4935820  0.5125934

 Al 
  0.9899287  0.7288810  0.7482959

 Al 
  0.2516818  0.5106727  0.7362965

 Al 
  0.2622816  0.7463876  0.4824378

 Al 
  0.5216388  0.5152307  0.0048005

 Al 
  0.5087619  0.7572076  0.2659200

 Al 
  0.7673630  0.4895339  0.2744307

 Al 
  0.7660017  0.7464977  0.0063487

 Al 
  0.5074501  0.0116096  0.4920697

 Al 
  0.4854995  0.2678370  0.7456500

 Al 
  0.7471759  0.9970360  0.7500743

 Al 
  0.7512598  0.2325306  0.4983974

 Al 
  0.5005680  0.5087768  0.4958183

 Al 
  0.5183704  0.7588152  0.7512945

 Al 
  0.7439372  0.4879907  0.7484926

 Al 
  0.7471128  0.7543971  0.5127791

