32 
charge = 0 
 Al 
  0.0015989  0.0130959  0.9913569

 Al 
  0.0038859  0.2357915  0.2672863

 Al 
  0.2479333  0.0021732  0.2445015

 Al 
  0.2520011  0.2667665  0.9746263

 Al 
  0.4904324  0.0050480  0.9914088

 Al 
  0.4944235  0.2469655  0.2475905

 Al 
  0.7508415  0.9869313  0.2618237

 Al 
  0.7295555  0.2415029  0.0085676

 Al 
  0.9805554  0.4884634  0.0003973

 Al 
  0.0018712  0.7506844  0.2521397

 Al 
  0.2531880  0.5064229  0.2476746

 Al 
  0.2460720  0.7432899  0.9908482

 Al 
  0.9982637  0.9937342  0.5046334

 Al 
  0.0037053  0.2601134  0.7517734

 Al 
  0.2291854  0.0030456  0.7382605

 Al 
  0.2560962  0.2509653  0.5033117

 Al 
  0.9892641  0.4938803  0.5141330

 Al 
  0.9886466  0.7284862  0.7476041

 Al 
  0.2516732  0.5103138  0.7348770

 Al 
  0.2611900  0.7457651  0.4812992

 Al 
  0.5208010  0.5168717  0.0045666

 Al 
  0.5097607  0.7556297  0.2656873

 Al 
  0.7664385  0.4900265  0.2744567

 Al 
  0.7648050  0.7473306  0.0072138

 Al 
  0.5080838  0.0107581  0.4919497

 Al 
  0.4887184  0.2670685  0.7453901

 Al 
  0.7484964  0.9973937  0.7486845

 Al 
  0.7534318  0.2338919  0.4979246

 Al 
  0.5020506  0.5096418  0.4967143

 Al 
  0.5175462  0.7558141  0.7524528

 Al 
  0.7433617  0.4878793  0.7496869

 Al 
  0.7461240  0.7542535  0.5111566

