32 
charge = 0 
 Al 
  0.0015643  0.0126875  0.9913581

 Al 
  0.0039738  0.2350342  0.2663482

 Al 
  0.2483714  0.0023835  0.2446673

 Al 
  0.2520680  0.2667974  0.9750606

 Al 
  0.4903483  0.0048413  0.9912084

 Al 
  0.4946376  0.2469172  0.2474420

 Al 
  0.7514393  0.9869771  0.2619524

 Al 
  0.7293525  0.2417702  0.0086852

 Al 
  0.9804354  0.4885835  0.0003787

 Al 
  0.0017029  0.7501782  0.2520841

 Al 
  0.2528823  0.5062559  0.2477773

 Al 
  0.2457836  0.7438209  0.9909497

 Al 
  0.9985483  0.9933234  0.5044144

 Al 
  0.0042189  0.2604240  0.7517796

 Al 
  0.2288934  0.0028303  0.7380563

 Al 
  0.2563598  0.2515333  0.5034070

 Al 
  0.9889362  0.4937738  0.5136355

 Al 
  0.9890661  0.7285926  0.7478306

 Al 
  0.2516744  0.5104265  0.7353473

 Al 
  0.2615774  0.7459594  0.4816556

 Al 
  0.5211042  0.5163259  0.0046396

 Al 
  0.5094228  0.7561717  0.2657950

 Al 
  0.7667714  0.4898532  0.2744691

 Al 
  0.7652220  0.7470360  0.0069229

 Al 
  0.5078932  0.0110539  0.4919682

 Al 
  0.4876083  0.2673494  0.7454792

 Al 
  0.7480422  0.9972576  0.7491424

 Al 
  0.7527016  0.2334142  0.4980744

 Al 
  0.5015457  0.5093671  0.4964111

 Al 
  0.5178556  0.7568338  0.7520605

 Al 
  0.7435572  0.4879140  0.7492835

 Al 
  0.7464445  0.7543166  0.5117172

