32 
charge = 0 
 Al 
  0.0015222  0.0122729  0.9913692

 Al 
  0.0040580  0.2343015  0.2654052

 Al 
  0.2488058  0.0025890  0.2448344

 Al 
  0.2521311  0.2668247  0.9755210

 Al 
  0.4902666  0.0046272  0.9910103

 Al 
  0.4948517  0.2468851  0.2473021

 Al 
  0.7520370  0.9870378  0.2620588

 Al 
  0.7291768  0.2420375  0.0087941

 Al 
  0.9803327  0.4886986  0.0003688

 Al 
  0.0015395  0.7496708  0.2520346

 Al 
  0.2525729  0.5060727  0.2478751

 Al 
  0.2455015  0.7443542  0.9910462

 Al 
  0.9988305  0.9929137  0.5041941

 Al 
  0.0047077  0.2607148  0.7517771

 Al 
  0.2286335  0.0026014  0.7378595

 Al 
  0.2566098  0.2520964  0.5034850

 Al 
  0.9886355  0.4936736  0.5131219

 Al 
  0.9894931  0.7287238  0.7480607

 Al 
  0.2516769  0.5105453  0.7358200

 Al 
  0.2619412  0.7461660  0.4820343

 Al 
  0.5213838  0.5157789  0.0047176

 Al 
  0.5090899  0.7566965  0.2658730

 Al 
  0.7670796  0.4896886  0.2744604

 Al 
  0.7656205  0.7467576  0.0066346

 Al 
  0.5076816  0.0113385  0.4920078

 Al 
  0.4865366  0.2676043  0.7455658

 Al 
  0.7476016  0.9971375  0.7496052

 Al 
  0.7519764  0.2329612  0.4982315

 Al 
  0.5010507  0.5090788  0.4961128

 Al 
  0.5181303  0.7578338  0.7516744

 Al 
  0.7437491  0.4879511  0.7488850

 Al 
  0.7467737  0.7543636  0.5122581

