32 
charge = 0 
 Al 
  0.0016249  0.0134993  0.9913655

 Al 
  0.0037919  0.2365762  0.2682194

 Al 
  0.2474952  0.0019566  0.2443369

 Al 
  0.2519318  0.2667343  0.9742154

 Al 
  0.4905190  0.0052485  0.9916106

 Al 
  0.4942082  0.2470299  0.2477464

 Al 
  0.7502438  0.9869004  0.2616727

 Al 
  0.7297857  0.2412331  0.0084414

 Al 
  0.9806953  0.4883409  0.0004270

 Al 
  0.0020445  0.7511905  0.2522041

 Al 
  0.2534936  0.5065727  0.2475682

 Al 
  0.2463653  0.7427603  0.9907443

 Al 
  0.9979741  0.9941439  0.5048525

 Al 
  0.0031669  0.2597842  0.7517611

 Al 
  0.2295109  0.0032461  0.7384733

 Al 
  0.2558178  0.2503923  0.5032003

 Al 
  0.9896181  0.4939929  0.5146131

 Al 
  0.9882357  0.7284070  0.7473826

 Al 
  0.2516732  0.5102062  0.7344092

 Al 
  0.2607804  0.7455869  0.4809675

 Al 
  0.5204730  0.5174125  0.0044985

 Al 
  0.5101047  0.7550740  0.2655475

 Al 
  0.7660834  0.4902096  0.2744233

 Al 
  0.7643706  0.7476437  0.0075046

 Al 
  0.5082521  0.0104500  0.4919546

 Al 
  0.4898631  0.2667615  0.7452997

 Al 
  0.7489617  0.9975484  0.7482340

 Al 
  0.7541656  0.2343919  0.4977835

 Al 
  0.5025655  0.5099017  0.4970224

 Al 
  0.5172021  0.7547795  0.7528501

 Al 
  0.7431649  0.4878471  0.7500953

 Al 
  0.7458146  0.7541768  0.5105762

