32 
charge = 0 
 Al 
  0.0013972  0.0173383  0.9922467

 Al 
  0.0026521  0.2466932  0.2775135

 Al 
  0.2427801  0.9994678  0.2425870

 Al 
  0.2512462  0.2662442  0.9713529

 Al 
  0.4915598  0.0068846  0.9937614

 Al 
  0.4920053  0.2487315  0.2499332

 Al 
  0.7440176  0.9878657  0.2585392

 Al 
  0.7339661  0.2384288  0.0066581

 Al 
  0.9833882  0.4870056  0.0015074

 Al 
  0.0039614  0.7563821  0.2532399

 Al 
  0.2565925  0.5069353  0.2461326

 Al 
  0.2496250  0.7373088  0.9893087

 Al 
  0.9947639  0.9983479  0.5071147

 Al 
  0.9959185  0.2551198  0.7511584

 Al 
  0.2352495  0.0043686  0.7412442

 Al 
  0.2521905  0.2440448  0.5010606

 Al 
  0.9949569  0.4957613  0.5183308

 Al 
  0.9843622  0.7294329  0.7455992

 Al 
  0.2519133  0.5092198  0.7296272

 Al 
  0.2550530  0.7446587  0.4790889

 Al 
  0.5154052  0.5225360  0.0042226

 Al 
  0.5138050  0.7481251  0.2620254

 Al 
  0.7608955  0.4928853  0.2725707

 Al 
  0.7588337  0.7521534  0.0106282

 Al 
  0.5086852  0.0064861  0.4935845

 Al 
  0.5041285  0.2616356  0.7441117

 Al 
  0.7543550  0.0000483  0.7439137

 Al 
  0.7617568  0.2411428  0.4968690

 Al 
  0.5085169  0.5115502  0.5006336

 Al 
  0.5115724  0.7429793  0.7571667

 Al 
  0.7411799  0.4878459  0.7548834

 Al 
  0.7432652  0.7523712  0.5033860

