32 
charge = 0 
 Al 
  0.0015890  0.0161094  0.9917455

 Al 
  0.0030654  0.2427627  0.2744480

 Al 
  0.2444334  0.0003601  0.2432058

 Al 
  0.2514479  0.2664435  0.9720336

 Al 
  0.4911725  0.0064254  0.9930177

 Al 
  0.4927479  0.2479135  0.2490508

 Al 
  0.7461574  0.9872048  0.2599723

 Al 
  0.7321358  0.2393830  0.0073598

 Al 
  0.9821853  0.4874462  0.0009467

 Al 
  0.0033068  0.7546223  0.2528229

 Al 
  0.2555468  0.5070937  0.2466969

 Al 
  0.2484815  0.7391639  0.9898866

 Al 
  0.9958975  0.9969284  0.5063475

 Al 
  0.9987748  0.2569972  0.7514677

 Al 
  0.2327335  0.0042114  0.7401651

 Al 
  0.2535716  0.2463133  0.5019900

 Al 
  0.9927627  0.4950101  0.5173680

 Al 
  0.9856096  0.7286459  0.7460670

 Al 
  0.2517611  0.5095664  0.7312546

 Al 
  0.2573313  0.7447614  0.4793760

 Al 
  0.5175177  0.5209445  0.0042077

 Al 
  0.5125340  0.7507784  0.2636986

 Al 
  0.7629994  0.4917789  0.2735620

 Al 
  0.7609462  0.7503205  0.0095453

 Al 
  0.5088300  0.0080169  0.4926588

 Al 
  0.4987204  0.2638632  0.7445820

 Al 
  0.7524194  0.9990186  0.7453084

 Al 
  0.7592186  0.2384783  0.4970534

 Al 
  0.5063611  0.5112433  0.4992946

 Al 
  0.5139436  0.7472291  0.7556705

 Al 
  0.7418160  0.4877469  0.7531050

 Al 
  0.7439817  0.7532152  0.5060925

