32 
charge = 0 
 Al 
  0.0013316  0.0176043  0.9924063

 Al 
  0.0025568  0.2476944  0.2781904

 Al 
  0.2423902  0.9992587  0.2424360

 Al 
  0.2512116  0.2661910  0.9712477

 Al 
  0.4916539  0.0069712  0.9939347

 Al 
  0.4918383  0.2489666  0.2501634

 Al 
  0.7435201  0.9880909  0.2581394

 Al 
  0.7344649  0.2382122  0.0064824

 Al 
  0.9837199  0.4869140  0.0016769

 Al 
  0.0041050  0.7567831  0.2533414

 Al 
  0.2568301  0.5068425  0.2459891

 Al 
  0.2498874  0.7368831  0.9891590

 Al 
  0.9944990  0.9986696  0.5072880

 Al 
  0.9951896  0.2546334  0.7510705

 Al 
  0.2359388  0.0043599  0.7415202

 Al 
  0.2518526  0.2435016  0.5008143

 Al 
  0.9955312  0.4959668  0.5184892

 Al 
  0.9840862  0.7297015  0.7455237

 Al 
  0.2519665  0.5091283  0.7292523

 Al 
  0.2544713  0.7446760  0.4790901

 Al 
  0.5148458  0.5228578  0.0042498

 Al 
  0.5140909  0.7474593  0.2615514

 Al 
  0.7603485  0.4931798  0.2722687

 Al 
  0.7583078  0.7526323  0.0108782

 Al 
  0.5085986  0.0060987  0.4938691

 Al 
  0.5054750  0.2610217  0.7439892

 Al 
  0.7548092  0.0003094  0.7436080

 Al 
  0.7623162  0.2418271  0.4968516

 Al 
  0.5090342  0.5115663  0.5009641

 Al 
  0.5109462  0.7419645  0.7575071

 Al 
  0.7410499  0.4878942  0.7553265

 Al 
  0.7431315  0.7521360  0.5027202

