32 
charge = 0 
 Al 
  0.0015519  0.0164385  0.9918507

 Al 
  0.0029590  0.2437280  0.2752611

 Al 
  0.2440077  0.0001312  0.2430486

 Al 
  0.2513898  0.2663952  0.9718232

 Al 
  0.4912702  0.0065566  0.9932095

 Al 
  0.4925523  0.2480979  0.2492637

 Al 
  0.7456029  0.9873348  0.2596418

 Al 
  0.7325652  0.2391330  0.0071865

 Al 
  0.9824650  0.4873274  0.0010693

 Al 
  0.0034800  0.7550827  0.2529256

 Al 
  0.2558203  0.5070863  0.2465583

 Al 
  0.2487785  0.7386813  0.9897468

 Al 
  0.9956054  0.9973009  0.5065479

 Al 
  0.9980756  0.2565418  0.7513984

 Al 
  0.2333214  0.0042795  0.7404299

 Al 
  0.2532251  0.2457354  0.5017685

 Al 
  0.9932912  0.4951871  0.5176563

 Al 
  0.9852780  0.7287993  0.7459259

 Al 
  0.2517908  0.5094822  0.7308314

 Al 
  0.2567744  0.7447094  0.4792609

 Al 
  0.5170128  0.5213814  0.0041978

 Al 
  0.5128669  0.7501213  0.2633174

 Al 
  0.7624895  0.4920437  0.2733479

 Al 
  0.7604203  0.7507636  0.0098262

 Al 
  0.5088251  0.0076395  0.4928556

 Al 
  0.5000668  0.2633422  0.7444681

 Al 
  0.7529169  0.9992698  0.7449371

 Al 
  0.7598918  0.2391293  0.4969902

 Al 
  0.5069093  0.5113559  0.4996300

 Al 
  0.5133756  0.7461462  0.7560603

 Al 
  0.7416427  0.4877580  0.7535493

 Al 
  0.7437775  0.7530209  0.5054156

