32 
charge = 0 
 Al 
  0.0008205  0.0188246  0.9936290

 Al 
  0.0021014  0.2536669  0.2812980

 Al 
  0.2403383  0.9981919  0.2415672

 Al 
  0.2511720  0.2658495  0.9711487

 Al 
  0.4921910  0.0072385  0.9948369

 Al 
  0.4910512  0.2505520  0.2515804

 Al 
  0.7409287  0.9899460  0.2555195

 Al 
  0.7376726  0.2371603  0.0055072

 Al 
  0.9858794  0.4865749  0.0029107

 Al 
  0.0046854  0.7587743  0.2538637

 Al 
  0.2580120  0.5058834  0.2451537

 Al 
  0.2511621  0.7347421  0.9882555

 Al 
  0.9931451  0.0002549  0.5081234

 Al 
  0.9908854  0.2517165  0.7504950

 Al 
  0.2404312  0.0039095  0.7431711

 Al 
  0.2499913  0.2405401  0.4993330

 Al 
  0.9990310  0.4973269  0.5187330

 Al 
  0.9827669  0.7318524  0.7454631

 Al 
  0.2524095  0.5084711  0.7273390

 Al 
  0.2510321  0.7451302  0.4796854

 Al 
  0.5113881  0.5239963  0.0046173

 Al 
  0.5154237  0.7435882  0.2583870

 Al 
  0.7570442  0.4950349  0.2700200

 Al 
  0.7553129  0.7555604  0.0121182

 Al 
  0.5077125  0.0037795  0.4959396

 Al 
  0.5131825  0.2569786  0.7432355

 Al 
  0.7571271  0.0017858  0.7421935

 Al 
  0.7648545  0.2459507  0.4969828

 Al 
  0.5118212  0.5111306  0.5028538

 Al 
  0.5071024  0.7365539  0.7591431

 Al 
  0.7405896  0.4884313  0.7579192

 Al 
  0.7427343  0.7506052  0.4989778

