32 
charge = 0 
 Al 
  0.0010990  0.0182986  0.9929620

 Al 
  0.0023019  0.2507017  0.2799589

 Al 
  0.2412975  0.9986795  0.2419942

 Al 
  0.2511546  0.2660252  0.9710893

 Al 
  0.4919311  0.0071581  0.9944161

 Al 
  0.4913952  0.2497265  0.2508675

 Al 
  0.7421365  0.9889114  0.2568672

 Al 
  0.7360316  0.2376293  0.0059737

 Al 
  0.9847693  0.4866950  0.0022487

 Al 
  0.0044602  0.7578734  0.2536261

 Al 
  0.2574774  0.5064452  0.2455633

 Al 
  0.2505965  0.7357185  0.9887035

 Al 
  0.9937664  0.9995409  0.5077546

 Al 
  0.9930090  0.2531657  0.7507883

 Al 
  0.2381194  0.0042189  0.7423494

 Al 
  0.2508787  0.2419521  0.5000668

 Al 
  0.9972811  0.4966202  0.5187627

 Al 
  0.9833535  0.7306668  0.7454099

 Al 
  0.2521608  0.5088263  0.7282201

 Al 
  0.2527288  0.7448295  0.4792659

 Al 
  0.5131281  0.5236090  0.0043909

 Al 
  0.5148470  0.7454854  0.2600255

 Al 
  0.7586939  0.4940931  0.2712341

 Al 
  0.7567682  0.7540926  0.0115588

 Al 
  0.5082298  0.0049342  0.4948344

 Al 
  0.5094265  0.2590701  0.7436154

 Al 
  0.7560641  0.0010767  0.7428073

 Al 
  0.7637728  0.2438926  0.4968690

 Al 
  0.5105020  0.5114635  0.5019331

 Al 
  0.5090305  0.7390995  0.7584204

 Al 
  0.7407467  0.4881083  0.7566395

 Al 
  0.7428444  0.7513898  0.5007834

