32 
charge = 0 
 Al 
  0.9992760  0.0191005  0.9977563

 Al 
  0.0019046  0.2655982  0.2816965

 Al 
  0.2379659  0.9972947  0.2398037

 Al 
  0.2522251  0.2649015  0.9735533

 Al 
  0.4931179  0.0064180  0.9961091

 Al 
  0.4908358  0.2544527  0.2545703

 Al 
  0.7375872  0.9968356  0.2495347

 Al 
  0.7451351  0.2367630  0.0042659

 Al 
  0.9911316  0.4873880  0.0065875

 Al 
  0.0037523  0.7603646  0.2540592

 Al 
  0.2588931  0.5020209  0.2438864

 Al 
  0.2515457  0.7328511  0.9867247

 Al 
  0.9919002  0.0015729  0.5082904

 Al 
  0.9832385  0.2463418  0.7494097

 Al 
  0.2514108  0.0008106  0.7465484

 Al 
  0.2474915  0.2359549  0.4968108

 Al 
  0.0060022  0.5011447  0.5155252

 Al 
  0.9818709  0.7391008  0.7475422

 Al 
  0.2540035  0.5056891  0.7253737

 Al 
  0.2447045  0.7479642  0.4839674

 Al 
  0.5042114  0.5207552  0.0064180

 Al 
  0.5153049  0.7368930  0.2507859

 Al 
  0.7504331  0.4991572  0.2626244

 Al 
  0.7502574  0.7616071  0.0127320

 Al 
  0.5041582  0.9987439  0.5017499

 Al 
  0.5264851  0.2466957  0.7416972

 Al 
  0.7590750  0.0033847  0.7416328

 Al 
  0.7649460  0.2546767  0.4983058

 Al 
  0.5156168  0.5070690  0.5061915

 Al 
  0.4993243  0.7298463  0.7596542

 Al 
  0.7418915  0.4913643  0.7631726

 Al 
  0.7443072  0.7472353  0.4930239

