32 
charge = 0 
 Al 
  0.9999134  0.0193852  0.9959210

 Al 
  0.0018613  0.2611777  0.2825949

 Al 
  0.2385278  0.9974024  0.2404770

 Al 
  0.2516262  0.2653161  0.9722489

 Al 
  0.4927949  0.0069489  0.9956970

 Al 
  0.4906651  0.2529305  0.2534466

 Al 
  0.7385464  0.9937144  0.2518056

 Al 
  0.7422232  0.2365675  0.0045753

 Al 
  0.9890253  0.4868002  0.0050344

 Al 
  0.0045084  0.7601901  0.2541669

 Al 
  0.2588411  0.5037399  0.2442453

 Al 
  0.2518304  0.7331258  0.9872036

 Al 
  0.9920982  0.0013861  0.5085342

 Al 
  0.9858175  0.2481845  0.7497673

 Al 
  0.2470138  0.0023241  0.7452787

 Al 
  0.2481845  0.2374536  0.4976152

 Al 
  0.0034714  0.4994988  0.5173024

 Al 
  0.9819081  0.7359289  0.7464012

 Al 
  0.2533068  0.5070727  0.7257735

 Al 
  0.2469271  0.7465856  0.4818709

 Al 
  0.5068697  0.5230187  0.0056000

 Al 
  0.5159014  0.7391280  0.2537486

 Al 
  0.7528526  0.4975806  0.2659113

 Al 
  0.7519652  0.7593560  0.0128806

 Al 
  0.5057510  0.0007339  0.4993651

 Al 
  0.5219432  0.2508700  0.7422491

 Al 
  0.7588560  0.0031273  0.7414645

 Al 
  0.7657814  0.2513217  0.4976746

 Al 
  0.5145191  0.5091344  0.5050270

 Al 
  0.5021719  0.7315875  0.7599834

 Al 
  0.7409881  0.4899064  0.7611801

 Al 
  0.7433085  0.7484988  0.4949557

