32 
charge = 0 
 Al 
  0.0000359  0.0193827  0.9955930

 Al 
  0.0018687  0.2602705  0.2826160

 Al 
  0.2386924  0.9974593  0.2406106

 Al 
  0.2515358  0.2653903  0.9720435

 Al 
  0.4927256  0.0070244  0.9956054

 Al 
  0.4906700  0.2526261  0.2532177

 Al 
  0.7387827  0.9931625  0.2522697

 Al 
  0.7416452  0.2365848  0.0046644

 Al 
  0.9886181  0.4867259  0.0047436

 Al 
  0.0045975  0.7600911  0.2541594

 Al 
  0.2587867  0.5040518  0.2443394

 Al 
  0.2518192  0.7332484  0.9873187

 Al 
  0.9921798  0.0013032  0.5085330

 Al 
  0.9863930  0.2485904  0.7498490

 Al 
  0.2461611  0.0025803  0.7450213

 Al 
  0.2483627  0.2377902  0.4978046

 Al 
  0.0029404  0.4991993  0.5175808

 Al 
  0.9819613  0.7353522  0.7462230

 Al 
  0.2531793  0.5072942  0.7259071

 Al 
  0.2474036  0.7463541  0.4815182

 Al 
  0.5074179  0.5233120  0.0054515

 Al 
  0.5159336  0.7396292  0.2543389

 Al 
  0.7533563  0.4972637  0.2664979

 Al 
  0.7523402  0.7588944  0.0128484

 Al 
  0.5060368  0.0011188  0.4989072

 Al 
  0.5209507  0.2516732  0.7423667

 Al 
  0.7587322  0.0030159  0.7414856

 Al 
  0.7658210  0.2506559  0.4975632

 Al 
  0.5142468  0.5094711  0.5047770

 Al 
  0.5027635  0.7320603  0.7599686

 Al 
  0.7408693  0.4896688  0.7607804

 Al 
  0.7431687  0.7487587  0.4953950

