32 
charge = 0 
 Al 
  0.9996621  0.0193307  0.9966153

 Al 
  0.0018625  0.2629684  0.2823944

 Al 
  0.2382493  0.9973244  0.2402084

 Al 
  0.2518365  0.2651614  0.9727167

 Al 
  0.4929273  0.0067682  0.9958678

 Al 
  0.4906948  0.2535407  0.2539008

 Al 
  0.7381194  0.9948901  0.2508861

 Al 
  0.7433828  0.2365885  0.0044243

 Al 
  0.9898520  0.4869907  0.0056371

 Al 
  0.0042696  0.7603237  0.2541545

 Al 
  0.2589067  0.5030828  0.2440783

 Al 
  0.2517846  0.7329476  0.9869920

 Al 
  0.9919781  0.0015049  0.5084872

 Al 
  0.9847248  0.2474085  0.7496126

 Al 
  0.2487451  0.0017660  0.7457886

 Al 
  0.2478664  0.2368200  0.4972650

 Al 
  0.0045084  0.5001250  0.5166675

 Al 
  0.9818474  0.7371405  0.7468083

 Al 
  0.2535753  0.5065776  0.7255594

 Al 
  0.2460064  0.7470942  0.4826432

 Al 
  0.5057893  0.5222761  0.0059143

 Al 
  0.5157517  0.7381776  0.2525642

 Al 
  0.7518662  0.4982142  0.2646701

 Al 
  0.7512499  0.7602681  0.0128830

 Al 
  0.5051445  0.9999554  0.5003020

 Al 
  0.5238441  0.2492327  0.7420190

 Al 
  0.7590243  0.0032944  0.7414769

 Al 
  0.7655735  0.2526558  0.4979147

 Al 
  0.5150104  0.5083845  0.5055084

 Al 
  0.5010086  0.7307670  0.7599327

 Al 
  0.7412863  0.4904349  0.7619771

 Al 
  0.7436501  0.7479865  0.4941315

