32 
charge = 0 
 Al 
  0.9984073  0.0178407  0.0008663

 Al 
  0.0021298  0.2714234  0.2782239

 Al 
  0.2379263  0.9976152  0.2388644

 Al 
  0.2534540  0.2641020  0.9761064

 Al 
  0.4935436  0.0052398  0.9966623

 Al 
  0.4916415  0.2564613  0.2560542

 Al 
  0.7367952  0.0021905  0.2466351

 Al 
  0.7492191  0.2379338  0.0042300

 Al 
  0.9943072  0.4888731  0.0089476

 Al 
  0.0017969  0.7597458  0.2534503

 Al 
  0.2583040  0.4992810  0.2438085

 Al 
  0.2501460  0.7334179  0.9864004

 Al 
  0.9921774  0.0012994  0.5071803

 Al 
  0.9806408  0.2443988  0.7490892

 Al 
  0.2578659  0.9980991  0.7483355

 Al 
  0.2470756  0.2343188  0.4961462

 Al 
  0.0091295  0.5039342  0.5120724

 Al 
  0.9824934  0.7442825  0.7498131

 Al 
  0.2550715  0.5028093  0.7255990

 Al 
  0.2420524  0.7504963  0.4877803

 Al 
  0.5007685  0.5152455  0.0075838

 Al 
  0.5131528  0.7347000  0.2467551

 Al 
  0.7473516  0.5013044  0.2569551

 Al 
  0.7482872  0.7645574  0.0115935

 Al 
  0.5015705  0.9956302  0.5051990

 Al 
  0.5316172  0.2405128  0.7411316

 Al 
  0.7582583  0.0027004  0.7425981

 Al 
  0.7621331  0.2595255  0.4992599

 Al 
  0.5164212  0.5031335  0.5075974

 Al 
  0.4957341  0.7291137  0.7580751

 Al 
  0.7440424  0.4942280  0.7659720

 Al 
  0.7464866  0.7455869  0.4910153

