32 
charge = 0 
 Al 
  0.9980904  0.0170016  0.0023427

 Al 
  0.0022462  0.2736857  0.2760123

 Al 
  0.2381776  0.9979011  0.2384845

 Al 
  0.2540852  0.2636392  0.9774157

 Al 
  0.4937305  0.0045963  0.9969247

 Al 
  0.4921885  0.2572039  0.2566284

 Al 
  0.7366294  0.0047473  0.2455930

 Al 
  0.7509009  0.2387864  0.0043661

 Al 
  0.9957205  0.4897604  0.0099500

 Al 
  0.0006633  0.7592013  0.2530197

 Al 
  0.2578152  0.4980768  0.2439780

 Al 
  0.2492030  0.7339835  0.9864178

 Al 
  0.9924682  0.0010445  0.5064205

 Al 
  0.9799923  0.2438419  0.7490186

 Al 
  0.2606109  0.9967947  0.7491127

 Al 
  0.2470806  0.2337867  0.4960596

 Al 
  0.0102594  0.5052807  0.5103423

 Al 
  0.9830169  0.7466833  0.7509888

 Al 
  0.2555232  0.5012116  0.7259876

 Al 
  0.2411168  0.7517598  0.4896540

 Al 
  0.4994468  0.5121021  0.0079810

 Al 
  0.5117556  0.7341864  0.2451698

 Al 
  0.7461883  0.5021732  0.2541879

 Al 
  0.7475868  0.7656997  0.0107680

 Al 
  0.5004121  0.9941599  0.5065974

 Al 
  0.5332917  0.2378855  0.7410165

 Al 
  0.7575417  0.0019690  0.7432355

 Al 
  0.7604698  0.2616219  0.4996225

 Al 
  0.5164979  0.5011460  0.5081085

 Al 
  0.4944075  0.7293711  0.7570393

 Al 
  0.7452453  0.4957465  0.7671477

 Al 
  0.7476387  0.7449507  0.4904114

