32 
charge = 0 
 Al 
  0.9985236  0.0180820  0.0003874

 Al 
  0.0020915  0.2706289  0.2788723

 Al 
  0.2378781  0.9975373  0.2389956

 Al 
  0.2532536  0.2642382  0.9756943

 Al 
  0.4934830  0.0054378  0.9965794

 Al 
  0.4914843  0.2561928  0.2558524

 Al 
  0.7368719  0.0013638  0.2470162

 Al 
  0.7486449  0.2376974  0.0042052

 Al 
  0.9938394  0.4886107  0.0086072

 Al 
  0.0021385  0.7598918  0.2535716

 Al 
  0.2584365  0.4996857  0.2437812

 Al 
  0.2504171  0.7332706  0.9864178

 Al 
  0.9921006  0.0013700  0.5073969

 Al 
  0.9809242  0.2446240  0.7491213

 Al 
  0.2569365  0.9985199  0.7480781

 Al 
  0.2470967  0.2345193  0.4962032

 Al 
  0.0087211  0.5035011  0.5126231

 Al 
  0.9823536  0.7434991  0.7494443

 Al 
  0.2549168  0.5032944  0.7255086

 Al 
  0.2423939  0.7500941  0.4871801

 Al 
  0.5012338  0.5161972  0.0074303

 Al 
  0.5135575  0.7349339  0.2473095

 Al 
  0.7477637  0.5010049  0.2578387

 Al 
  0.7485397  0.7641565  0.0118249

 Al 
  0.5019553  0.9961029  0.5047139

 Al 
  0.5309824  0.2414027  0.7411898

 Al 
  0.7584526  0.0028835  0.7424125

 Al 
  0.7626368  0.2588238  0.4991288

 Al 
  0.5163593  0.5037634  0.5074130

 Al 
  0.4962106  0.7291000  0.7583758

 Al 
  0.7436748  0.4937590  0.7655747

 Al 
  0.7461264  0.7458109  0.4912529

