32 
charge = 0 
 Al 
  0.9975645  0.0141453  0.0062546

 Al 
  0.0024417  0.2783464  0.2687874

 Al 
  0.2395327  0.9989394  0.2376764

 Al 
  0.2557856  0.2619709  0.9811952

 Al 
  0.4942825  0.0026273  0.9977984

 Al 
  0.4940981  0.2585231  0.2578251

 Al 
  0.7366318  0.0115427  0.2438184

 Al 
  0.7547510  0.2419459  0.0051012

 Al 
  0.9993404  0.4927380  0.0121516

 Al 
  0.9971412  0.7572138  0.2514504

 Al 
  0.2560096  0.4952490  0.2451030

 Al 
  0.2460534  0.7361863  0.9869747

 Al 
  0.9935288  0.0002488  0.5037721

 Al 
  0.9798760  0.2432454  0.7489778

 Al 
  0.2669954  0.9933840  0.7511645

 Al 
  0.2475162  0.2329452  0.4964432

 Al 
  0.0123843  0.5089501  0.5056136

 Al 
  0.9850985  0.7529503  0.7543587

 Al 
  0.2565306  0.4962131  0.7277907

 Al 
  0.2394015  0.7552832  0.4947960

 Al 
  0.4966710  0.5024244  0.0083214

 Al 
  0.5069910  0.7342978  0.2418098

 Al 
  0.7437763  0.5041594  0.2464692

 Al 
  0.7461598  0.7680944  0.0078338

 Al 
  0.4976573  0.9900500  0.5094674

 Al 
  0.5357866  0.2318771  0.7412554

 Al 
  0.7549602  0.9987971  0.7452886

 Al 
  0.7555690  0.2667628  0.5001708

 Al 
  0.5159101  0.4956277  0.5091221

 Al 
  0.4918346  0.7313190  0.7536768

 Al 
  0.7488627  0.5003230  0.7699198

 Al 
  0.7508589  0.7436179  0.4896119

