32 
charge = 0 
 Al 
  0.9975150  0.0133545  0.0071469

 Al 
  0.0024405  0.2791112  0.2668519

 Al 
  0.2399943  0.9992265  0.2375390

 Al 
  0.2561593  0.2614549  0.9821482

 Al 
  0.4944372  0.0021088  0.9980657

 Al 
  0.4946339  0.2586728  0.2580281

 Al 
  0.7367210  0.0130922  0.2436439

 Al 
  0.7555171  0.2428828  0.0053401

 Al 
  0.0001596  0.4935783  0.0125291

 Al 
  0.9962304  0.7566606  0.2509863

 Al 
  0.2555022  0.4946970  0.2455188

 Al 
  0.2452168  0.7368311  0.9872234

 Al 
  0.9938122  0.0000681  0.5030296

 Al 
  0.9801990  0.2432825  0.7489889

 Al 
  0.2682479  0.9926254  0.7516608

 Al 
  0.2476944  0.2328721  0.4966611

 Al 
  0.0126937  0.5098052  0.5045122

 Al 
  0.9857445  0.7543785  0.7551817

 Al 
  0.2567138  0.4948913  0.7283785

 Al 
  0.2391614  0.7561247  0.4960175

 Al 
  0.4961759  0.4999344  0.0082038

 Al 
  0.5056581  0.7346505  0.2412071

 Al 
  0.7433493  0.5045617  0.2445919

 Al 
  0.7458962  0.7685115  0.0070108

 Al 
  0.4971177  0.9890352  0.5099079

 Al 
  0.5359376  0.2307386  0.7414497

 Al 
  0.7542547  0.9977860  0.7458220

 Al 
  0.7544020  0.2678568  0.5001856

 Al 
  0.5155933  0.4943270  0.5092891

 Al 
  0.4914435  0.7319885  0.7527969

 Al 
  0.7497748  0.5015049  0.7704866

 Al 
  0.7516039  0.7433865  0.4895946

