32 
charge = 0 
 Al 
  0.9974976  0.0121541  0.0083808

 Al 
  0.0023910  0.2799317  0.2639572

 Al 
  0.2407542  0.9996584  0.2373868

 Al 
  0.2566531  0.2606084  0.9835639

 Al 
  0.4946871  0.0013304  0.9985100

 Al 
  0.4954507  0.2587619  0.2582545

 Al 
  0.7369103  0.0152344  0.2435857

 Al 
  0.7565059  0.2443542  0.0057114

 Al 
  0.0013056  0.4948802  0.0129313

 Al 
  0.9948901  0.7558326  0.2502549

 Al 
  0.2547461  0.4940090  0.2462217

 Al 
  0.2439892  0.7378236  0.9876689

 Al 
  0.9942193  0.9998342  0.5018947

 Al 
  0.9809094  0.2434533  0.7490161

 Al 
  0.2698183  0.9915932  0.7523897

 Al 
  0.2479964  0.2328610  0.4970596

 Al 
  0.0129994  0.5109995  0.5029714

 Al 
  0.9867865  0.7563734  0.7563586

 Al 
  0.2569303  0.4929150  0.7293377

 Al 
  0.2389350  0.7573202  0.4977563

 Al 
  0.4955782  0.4962774  0.0078746

 Al 
  0.5036124  0.7353844  0.2404794

 Al 
  0.7428296  0.5050975  0.2418804

 Al 
  0.7455572  0.7689953  0.0057633

 Al 
  0.4964507  0.9875538  0.5103336

 Al 
  0.5358311  0.2293537  0.7418395

 Al 
  0.7532078  0.9961623  0.7466041

 Al 
  0.7527870  0.2693159  0.5001151

 Al 
  0.5149968  0.4925028  0.5094785

 Al 
  0.4910450  0.7330503  0.7515049

 Al 
  0.7511027  0.5032536  0.7712242

 Al 
  0.7526261  0.7431229  0.4896899

