32 
charge = 0 
 Al 
  0.9976474  0.0149163  0.0053166

 Al 
  0.0024194  0.2774108  0.2707007

 Al 
  0.2391132  0.9986572  0.2378422

 Al 
  0.2553822  0.2624486  0.9802361

 Al 
  0.4941340  0.0031397  0.9975509

 Al 
  0.4935771  0.2582991  0.2575813

 Al 
  0.7365762  0.0099116  0.2441043

 Al 
  0.7539008  0.2410574  0.0048772

 Al 
  0.9984803  0.4919286  0.0116962

 Al 
  0.9980546  0.7577570  0.2518898

 Al 
  0.2565059  0.4958727  0.2447354

 Al 
  0.2468875  0.7355675  0.9867667

 Al 
  0.9932454  0.0004443  0.5044948

 Al 
  0.9796866  0.2432776  0.7489728

 Al 
  0.2655871  0.9941921  0.7506609

 Al 
  0.2473615  0.2330739  0.4962687

 Al 
  0.0119858  0.5080565  0.5067633

 Al 
  0.9844958  0.7514517  0.7535159

 Al 
  0.2563178  0.4975236  0.7272499

 Al 
  0.2397171  0.7544131  0.4935350

 Al 
  0.4972464  0.5049255  0.0083535

 Al 
  0.5082842  0.7340689  0.2425090

 Al 
  0.7442750  0.5037176  0.2483887

 Al 
  0.7464593  0.7676006  0.0086369

 Al 
  0.4982662  0.9910796  0.5089055

 Al 
  0.5354475  0.2331803  0.7411143

 Al 
  0.7556581  0.9997352  0.7447515

 Al 
  0.7567868  0.2655797  0.5001040

 Al 
  0.5161626  0.4969816  0.5089204

 Al 
  0.4923284  0.7307027  0.7545579

 Al 
  0.7479395  0.4991411  0.7692973

 Al 
  0.7500743  0.7438914  0.4896998

