32 
charge = 0 
 Al 
  0.9976387  0.0097508  0.0104624

 Al 
  0.0021063  0.2804366  0.2583238

 Al 
  0.2424892  0.0004851  0.2372803

 Al 
  0.2573561  0.2586444  0.9863534

 Al 
  0.4952589  0.9997698  0.9995817

 Al 
  0.4970880  0.2584872  0.2584389

 Al 
  0.7374932  0.0188320  0.2441500

 Al 
  0.7579625  0.2474828  0.0064205

 Al 
  0.0033352  0.4976189  0.0131107

 Al 
  0.9923556  0.7542572  0.2486758

 Al 
  0.2533414  0.4931390  0.2478553

 Al 
  0.2417343  0.7398495  0.9888149

 Al 
  0.9949248  0.9995458  0.4995966

 Al 
  0.9830194  0.2441228  0.7490879

 Al 
  0.2718554  0.9899485  0.7538228

 Al 
  0.2486981  0.2331481  0.4980583

 Al 
  0.0130872  0.5130154  0.5003131

 Al 
  0.9891231  0.7598460  0.7584724

 Al 
  0.2571741  0.4890612  0.7315244

 Al 
  0.2389065  0.7594278  0.5008836

 Al 
  0.4948245  0.4893941  0.0066841

 Al 
  0.4994146  0.7374783  0.2395587

 Al 
  0.7421514  0.5059675  0.2368670

 Al 
  0.7450225  0.7694928  0.0033328

 Al 
  0.4956339  0.9847656  0.5103510

 Al 
  0.5345342  0.2277288  0.7429521

 Al 
  0.7512301  0.9926452  0.7480459

 Al 
  0.7501733  0.2715831  0.4996621

 Al 
  0.5133731  0.4893842  0.5096716

 Al 
  0.4908482  0.7352309  0.7490916

 Al 
  0.7535827  0.5065962  0.7722935

 Al 
  0.7542634  0.7428667  0.4902641

