32 
charge = 0 
 Al 
  0.9977315  0.0089513  0.0110477

 Al 
  0.0019541  0.2802819  0.2564984

 Al 
  0.2431278  0.0007438  0.2373063

 Al 
  0.2574972  0.2578944  0.9872878

 Al 
  0.4954755  0.9992438  0.0000037

 Al 
  0.4976288  0.2582682  0.2584253

 Al 
  0.7377506  0.0198344  0.2445250

 Al 
  0.7583152  0.2485756  0.0066284

 Al 
  0.0039552  0.4985780  0.0129758

 Al 
  0.9915586  0.7537684  0.2481140

 Al 
  0.2529206  0.4929942  0.2484580

 Al 
  0.2410586  0.7405326  0.9892765

 Al 
  0.9951203  0.9995124  0.4988218

 Al 
  0.9839043  0.2444248  0.7491102

 Al 
  0.2722204  0.9895277  0.7543067

 Al 
  0.2489555  0.2333226  0.4984431

 Al 
  0.0129746  0.5135736  0.4995433

 Al 
  0.9899856  0.7608720  0.7591060

 Al 
  0.2572051  0.4878051  0.7323400

 Al 
  0.2390043  0.7600453  0.5018304

 Al 
  0.4946785  0.4872296  0.0061309

 Al 
  0.4979828  0.7383397  0.2393830

 Al 
  0.7420078  0.5062175  0.2353039

 Al 
  0.7448715  0.7695300  0.0025605

 Al 
  0.4955101  0.9838857  0.5101171

 Al 
  0.5338077  0.2275073  0.7434186

 Al 
  0.7506101  0.9914138  0.7484815

 Al 
  0.7495050  0.2721586  0.4994307

 Al 
  0.5126949  0.4885043  0.5096926

 Al 
  0.4909410  0.7359425  0.7483429

 Al 
  0.7543624  0.5076593  0.7725335

 Al 
  0.7546854  0.7428556  0.4905562

