32 
charge = 0 
 Al 
  0.9975199  0.0113522  0.0091320

 Al 
  0.0023241  0.2802658  0.2620514

 Al 
  0.2413024  0.9999406  0.2373212

 Al 
  0.2569316  0.2599958  0.9844958

 Al 
  0.4948654  0.0008106  0.9988379

 Al 
  0.4959990  0.2587347  0.2583548

 Al 
  0.7370749  0.0165351  0.2436761

 Al 
  0.7570640  0.2453728  0.0059576

 Al 
  0.0020172  0.4957725  0.0130860

 Al 
  0.9940213  0.7552906  0.2497451

 Al 
  0.2542572  0.4936451  0.2467353

 Al 
  0.2432021  0.7384956  0.9880130

 Al 
  0.9944730  0.9997092  0.5011324

 Al 
  0.9815182  0.2436327  0.7490397

 Al 
  0.2706586  0.9909819  0.7528687

 Al 
  0.2482179  0.2329142  0.4973652

 Al 
  0.0131021  0.5117284  0.5020234

 Al 
  0.9875266  0.7576048  0.7570999

 Al 
  0.2570380  0.4916143  0.7300270

 Al 
  0.2388669  0.7580664  0.4988503

 Al 
  0.4952676  0.4939149  0.0075553

 Al 
  0.5022276  0.7359970  0.2400995

 Al 
  0.7425548  0.5054131  0.2401490

 Al 
  0.7453604  0.7692280  0.0049379

 Al 
  0.4961017  0.9865984  0.5104624

 Al 
  0.5355515  0.2286459  0.7421625

 Al 
  0.7525283  0.9950238  0.7471053

 Al 
  0.7518180  0.2701661  0.5000074

 Al 
  0.5145216  0.4913829  0.5095676

 Al 
  0.4908953  0.7337768  0.7506720

 Al 
  0.7519553  0.5043933  0.7716400

 Al 
  0.7532338  0.7429979  0.4898285

