32 
charge = 0 
 Al 
  0.9985719  0.0044862  0.0134696

 Al 
  0.0006522  0.2766559  0.2466623

 Al 
  0.2472712  0.0019863  0.2381033

 Al 
  0.2572732  0.2525840  0.9928853

 Al 
  0.4970212  0.9961722  0.0030865

 Al 
  0.5004876  0.2559440  0.2576989

 Al 
  0.7398928  0.0237600  0.2481511

 Al 
  0.7593869  0.2550641  0.0072125

 Al 
  0.0072323  0.5044379  0.0103114

 Al 
  0.9875019  0.7515259  0.2446389

 Al 
  0.2511200  0.4934459  0.2523217

 Al 
  0.2381838  0.7445114  0.9927392

 Al 
  0.9958158  0.0000124  0.4943592

 Al 
  0.9903247  0.2466388  0.7491857

 Al 
  0.2715992  0.9884276  0.7572496

 Al 
  0.2505916  0.2348634  0.5009987

 Al 
  0.0111504  0.5155982  0.4961153

 Al 
  0.9958406  0.7657604  0.7619450

 Al 
  0.2569935  0.4809997  0.7379189

 Al 
  0.2403074  0.7626764  0.5064155

 Al 
  0.4944953  0.4762215  0.0015630

 Al 
  0.4895426  0.7444186  0.2392753

 Al 
  0.7416514  0.5075194  0.2273910

 Al 
  0.7440708  0.7686921  0.9988416

 Al 
  0.4960646  0.9794131  0.5067002

 Al 
  0.5273130  0.2288538  0.7468529

 Al 
  0.7474024  0.9843485  0.7503923

 Al 
  0.7477910  0.2739431  0.4976127

 Al 
  0.5074427  0.4850478  0.5095230

 Al 
  0.4926613  0.7394609  0.7446970

 Al 
  0.7584501  0.5131318  0.7727241

 Al 
  0.7558982  0.7434013  0.4929595

