32 
charge = 0 
 Al 
  0.9982946  0.0057151  0.0129350

 Al 
  0.0010792  0.2781063  0.2493330

 Al 
  0.2460287  0.0016831  0.2377617

 Al 
  0.2575219  0.2542646  0.9912467

 Al 
  0.4965299  0.9970447  0.0021076

 Al 
  0.4997364  0.2567707  0.2580070

 Al 
  0.7391676  0.0229555  0.2469049

 Al 
  0.7592186  0.2532251  0.0071816

 Al 
  0.0063338  0.5027350  0.0113794

 Al 
  0.9885563  0.7520531  0.2456512

 Al 
  0.2515173  0.4931154  0.2511732

 Al 
  0.2388013  0.7433753  0.9916155

 Al 
  0.9956933  0.9997512  0.4956190

 Al 
  0.9883100  0.2459544  0.7491745

 Al 
  0.2722043  0.9885117  0.7563871

 Al 
  0.2501077  0.2343535  0.5002265

 Al 
  0.0118534  0.5152282  0.4969321

 Al 
  0.9940263  0.7645265  0.7612890

 Al 
  0.2571123  0.4828474  0.7361851

 Al 
  0.2398371  0.7620935  0.5052559

 Al 
  0.4944631  0.4790815  0.0030778

 Al 
  0.4919558  0.7425449  0.2391763

 Al 
  0.7416997  0.5071482  0.2294441

 Al 
  0.7442998  0.7690993  0.9997463

 Al 
  0.4957081  0.9805641  0.5079897

 Al 
  0.5295023  0.2280852  0.7457700

 Al 
  0.7482587  0.9862903  0.7499641

 Al 
  0.7479147  0.2736783  0.4981795

 Al 
  0.5091567  0.4857532  0.5096159

 Al 
  0.4920004  0.7385921  0.7456104

 Al 
  0.7573536  0.5116987  0.7728801

 Al 
  0.7557571  0.7431563  0.4921786

