32 
charge = 0 
 Al 
  0.9979778  0.0073425  0.0120774

 Al 
  0.0015692  0.2795047  0.2528996

 Al 
  0.2445052  0.0012351  0.2374585

 Al 
  0.2576259  0.2562200  0.9892085

 Al 
  0.4959618  0.9981672  0.0009665

 Al 
  0.4986944  0.2576469  0.2582880

 Al 
  0.7383743  0.0215695  0.2455398

 Al 
  0.7588585  0.2508453  0.0069737

 Al 
  0.0051520  0.5005878  0.0123979

 Al 
  0.9900228  0.7528600  0.2469271

 Al 
  0.2521608  0.4929162  0.2497525

 Al 
  0.2398334  0.7419261  0.9903371

 Al 
  0.9954495  0.9995532  0.4972464

 Al 
  0.9859314  0.2451302  0.7491486

 Al 
  0.2725051  0.9888830  0.7553104

 Al 
  0.2495075  0.2337743  0.4992847

 Al 
  0.0125489  0.5145178  0.4981523

 Al 
  0.9918742  0.7627754  0.7602693

 Al 
  0.2572001  0.4853200  0.7341332

 Al 
  0.2393384  0.7611542  0.5036087

 Al 
  0.4945065  0.4830627  0.0047795

 Al 
  0.4950386  0.7402913  0.2391887

 Al 
  0.7418110  0.5066853  0.2323041

 Al 
  0.7445857  0.7694310  0.0010928

 Al 
  0.4954718  0.9821853  0.5092916

 Al 
  0.5319341  0.2275147  0.7444966

 Al 
  0.7494146  0.9888830  0.7492785

 Al 
  0.7484865  0.2730694  0.4988627

 Al 
  0.5111022  0.4869759  0.5096839

 Al 
  0.4913371  0.7373162  0.7469247

 Al 
  0.7558759  0.5097186  0.7728343

 Al 
  0.7553450  0.7429397  0.4912801

