32 
charge = 0 
 Al 
  0.9993787  0.0013230  0.0144127

 Al 
  0.9993911  0.2712749  0.2397072

 Al 
  0.2508799  0.0026137  0.2395562

 Al 
  0.2558203  0.2472241  0.9977612

 Al 
  0.4985830  0.9938345  0.0061049

 Al 
  0.5022103  0.2531026  0.2564712

 Al 
  0.7424410  0.0247909  0.2522313

 Al 
  0.7595032  0.2598547  0.0065343

 Al 
  0.0096938  0.5091679  0.0062274

 Al 
  0.9849512  0.7505544  0.2418469

 Al 
  0.2504666  0.4950398  0.2556024

 Al 
  0.2374660  0.7477192  0.9964927

 Al 
  0.9958740  0.0012004  0.4909398

 Al 
  0.9964841  0.2485867  0.7491844

 Al 
  0.2685053  0.9891045  0.7597272

 Al 
  0.2519875  0.2364635  0.5032696

 Al 
  0.0085652  0.5158136  0.4943740

 Al 
  0.0014628  0.7686959  0.7630526

 Al 
  0.2564675  0.4763143  0.7433172

 Al 
  0.2418630  0.7635872  0.5091295

 Al 
  0.4947329  0.4694607  0.9966623

 Al 
  0.4828697  0.7498861  0.2399337

 Al 
  0.7415660  0.5087533  0.2225286

 Al 
  0.7433481  0.7669039  0.9971041

 Al 
  0.4977117  0.9768452  0.5021336

 Al 
  0.5201648  0.2320281  0.7501114

 Al 
  0.7451673  0.9796508  0.7510321

 Al 
  0.7487773  0.2738515  0.4960646

 Al 
  0.5018601  0.4841654  0.5090552

 Al 
  0.4949446  0.7412306  0.7427021

 Al 
  0.7613076  0.5166019  0.7713801

 Al 
  0.7555579  0.7443592  0.4953492

