32 
charge = 0 
 Al 
  0.9988701  0.0032647  0.0139090

 Al 
  0.0001893  0.2748725  0.2440052

 Al 
  0.2485892  0.0022561  0.2385538

 Al 
  0.2568635  0.2507141  0.9946315

 Al 
  0.4975670  0.9952836  0.0041632

 Al 
  0.5011955  0.2549762  0.2573066

 Al 
  0.7407430  0.0243478  0.2495718

 Al 
  0.7594797  0.2569118  0.0071024

 Al 
  0.0081481  0.5062014  0.0089798

 Al 
  0.9864908  0.7510792  0.2435931

 Al 
  0.2508007  0.4939285  0.2535283

 Al 
  0.2377370  0.7456908  0.9940201

 Al 
  0.9958839  0.0003750  0.4930734

 Al 
  0.9925226  0.2473628  0.7491894

 Al 
  0.2706772  0.9885241  0.7581568

 Al 
  0.2511014  0.2354302  0.5018229

 Al 
  0.0102965  0.5158148  0.4953851

 Al 
  0.9978281  0.7669274  0.7624833

 Al 
  0.2568301  0.4791792  0.7398223

 Al 
  0.2408495  0.7631380  0.5075046

 Al 
  0.4945683  0.4735050  0.9998515

 Al 
  0.4870563  0.7464197  0.2394597

 Al 
  0.7416180  0.5079340  0.2254406

 Al 
  0.7438196  0.7681427  0.9980570

 Al 
  0.4965695  0.9783439  0.5051582

 Al 
  0.5248292  0.2298797  0.7480286

 Al 
  0.7465509  0.9824637  0.7507264

 Al 
  0.7479382  0.2740434  0.4970224

 Al 
  0.5055084  0.4845379  0.5093881

 Al 
  0.4934446  0.7402307  0.7438629

 Al 
  0.7595391  0.5145067  0.7723863

 Al 
  0.7558920  0.7437144  0.4938184

