32 
charge = 0 
 Al 
  0.9995693  0.0006076  0.0145277

 Al 
  0.9990842  0.2696748  0.2380798

 Al 
  0.2517895  0.0027226  0.2400438

 Al 
  0.2552869  0.2457354  0.9990706

 Al 
  0.4990137  0.9932924  0.0068957

 Al 
  0.5025370  0.2522895  0.2560801

 Al 
  0.7432083  0.0247661  0.2533513

 Al 
  0.7594773  0.2609227  0.0061569

 Al 
  0.0103052  0.5103176  0.0049775

 Al 
  0.9844042  0.7504307  0.2411799

 Al 
  0.2504047  0.4955732  0.2564180

 Al 
  0.2375476  0.7485323  0.9975830

 Al 
  0.9958294  0.0015977  0.4901181

 Al 
  0.9981177  0.2490545  0.7491807

 Al 
  0.2674571  0.9894795  0.7603547

 Al 
  0.2523439  0.2368893  0.5038550

 Al 
  0.0077855  0.5156836  0.4940510

 Al 
  0.0029838  0.7693233  0.7631429

 Al 
  0.2562942  0.4752772  0.7447899

 Al 
  0.2422875  0.7636404  0.5096963

 Al 
  0.4947973  0.4680796  0.9953208

 Al 
  0.4812386  0.7512512  0.2401762

 Al 
  0.7415375  0.5091307  0.2215262

 Al 
  0.7431439  0.7663036  0.9968727

 Al 
  0.4982538  0.9763811  0.5008205

 Al 
  0.5181823  0.2329786  0.7509492

 Al 
  0.7446401  0.9787090  0.7510544

 Al 
  0.7493033  0.2736572  0.4957168

 Al 
  0.5002983  0.4841914  0.5088807

 Al 
  0.4955745  0.7415140  0.7423407

 Al 
  0.7619858  0.5173457  0.7708195

 Al 
  0.7553190  0.7446475  0.4959668

