32 
charge = 0 
 Al 
  0.9989728  0.0028650  0.0140327

 Al 
  0.0000297  0.2742104  0.2431278

 Al 
  0.2490421  0.0023378  0.2387295

 Al 
  0.2566903  0.2500495  0.9952366

 Al 
  0.4977612  0.9949879  0.0045406

 Al 
  0.5014182  0.2546248  0.2571568

 Al 
  0.7410549  0.0244926  0.2500792

 Al 
  0.7594971  0.2575207  0.0070294

 Al 
  0.0084563  0.5067967  0.0084785

 Al 
  0.9861665  0.7509517  0.2432404

 Al 
  0.2507141  0.4941216  0.2539404

 Al 
  0.2376318  0.7460918  0.9944817

 Al 
  0.9958938  0.0005185  0.4926427

 Al 
  0.9932899  0.2476090  0.7491894

 Al 
  0.2703022  0.9885983  0.7584674

 Al 
  0.2512759  0.2356294  0.5021063

 Al 
  0.0099797  0.5158519  0.4951611

 Al 
  0.9985273  0.7672999  0.7626330

 Al 
  0.2567670  0.4785840  0.7404930

 Al 
  0.2410438  0.7632617  0.5078511

 Al 
  0.4945980  0.4726400  0.9992426

 Al 
  0.4862173  0.7471066  0.2395389

 Al 
  0.7416093  0.5080838  0.2248193

 Al 
  0.7437293  0.7679261  0.9978281

 Al 
  0.4967700  0.9780122  0.5045926

 Al 
  0.5239431  0.2302720  0.7484357

 Al 
  0.7462700  0.9818598  0.7508156

 Al 
  0.7480484  0.2740409  0.4968257

 Al 
  0.5048166  0.4844141  0.5093325

 Al 
  0.4937293  0.7404621  0.7436055

 Al 
  0.7598993  0.5149485  0.7722303

 Al 
  0.7558574  0.7438320  0.4941166

