32 
charge = 0 
 Al 
  0.0000272  0.9987798  0.0145550

 Al 
  0.9982934  0.2646329  0.2337335

 Al 
  0.2542783  0.0029380  0.2417813

 Al 
  0.2533872  0.2411898  0.0030494

 Al 
  0.5003391  0.9919299  0.0091171

 Al 
  0.5031929  0.2497847  0.2547745

 Al 
  0.7457255  0.0239877  0.2566705

 Al 
  0.7593349  0.2635030  0.0044936

 Al 
  0.0120316  0.5134102  0.0009467

 Al 
  0.9830726  0.7503775  0.2394287

 Al 
  0.2504393  0.4973665  0.2586617

 Al 
  0.2384857  0.7508762  0.0010680

 Al 
  0.9956116  0.0029590  0.4879016

 Al 
  0.0028922  0.2502587  0.7491783

 Al 
  0.2639461  0.9910227  0.7621368

 Al 
  0.2533637  0.2381194  0.5055183

 Al 
  0.0052621  0.5148842  0.4933815

 Al 
  0.0075244  0.7708616  0.7628954

 Al 
  0.2556990  0.4727625  0.7492649

 Al 
  0.2435313  0.7633434  0.5110688

 Al 
  0.4949297  0.4650030  0.9913655

 Al 
  0.4767932  0.7549478  0.2410561

 Al 
  0.7413952  0.5104129  0.2192466

 Al 
  0.7425103  0.7642233  0.9967279

 Al 
  0.5000594  0.9755866  0.4968232

 Al 
  0.5121714  0.2358287  0.7532820

 Al 
  0.7432293  0.9767747  0.7507760

 Al 
  0.7513786  0.2727365  0.4949012

 Al 
  0.4955287  0.4848547  0.5082026

 Al 
  0.4973850  0.7419410  0.7416712

 Al 
  0.7638607  0.5191488  0.7686266

 Al 
  0.7543203  0.7455572  0.4976969

