32 
charge = 0 
 Al 
  0.0002079  0.9976672  0.0141825

 Al 
  0.9978442  0.2604537  0.2308623

 Al 
  0.2558957  0.0030258  0.2435622

 Al 
  0.2515853  0.2375303  0.0063029

 Al 
  0.5014517  0.9911985  0.0106010

 Al 
  0.5033798  0.2477575  0.2535877

 Al 
  0.7479518  0.0225657  0.2591716

 Al 
  0.7591877  0.2647802  0.0025061

 Al 
  0.0132852  0.5154237  0.9974828

 Al 
  0.9823524  0.7506633  0.2383781

 Al 
  0.2506609  0.4989654  0.2601728

 Al 
  0.2400228  0.7526447  0.0040555

 Al 
  0.9954136  0.0042201  0.4864400

 Al 
  0.0064836  0.2509368  0.7492166

 Al 
  0.2608621  0.9926910  0.7634387

 Al 
  0.2541099  0.2390005  0.5066989

 Al 
  0.0030568  0.5138273  0.4931538

 Al 
  0.0110514  0.7716957  0.7621058

 Al 
  0.2551371  0.4715187  0.7528996

 Al 
  0.2444669  0.7625984  0.5118299

 Al 
  0.4949272  0.4638013  0.9884201

 Al 
  0.4738454  0.7572930  0.2419620

 Al 
  0.7411848  0.5115898  0.2182627

 Al 
  0.7419917  0.7622680  0.9971858

 Al 
  0.5016521  0.9756955  0.4936996

 Al 
  0.5073882  0.2379053  0.7548537

 Al 
  0.7423123  0.9763217  0.7502129

 Al 
  0.7534738  0.2716672  0.4945386

 Al 
  0.4917158  0.4860118  0.5074551

 Al 
  0.4986412  0.7418556  0.7416217

 Al 
  0.7652084  0.5201277  0.7662628

 Al 
  0.7532560  0.7462985  0.4988763

