32 
charge = 0 
 Al 
  0.0000248  0.9966425  0.0129622

 Al 
  0.9975595  0.2548946  0.2280271

 Al 
  0.2572484  0.0030815  0.2467316

 Al 
  0.2489097  0.2328090  0.0107086

 Al 
  0.5030877  0.9908829  0.0118930

 Al 
  0.5032214  0.2451265  0.2518155

 Al 
  0.7511287  0.0194359  0.2620254

 Al 
  0.7589587  0.2651577  0.9987612

 Al 
  0.0147208  0.5173209  0.9926600

 Al 
  0.9819502  0.7514727  0.2376504

 Al 
  0.2510915  0.5012512  0.2616467

 Al 
  0.2432293  0.7548178  0.0082075

 Al 
  0.9953072  0.0061197  0.4850614

 Al 
  0.0107396  0.2512982  0.7493899

 Al 
  0.2565900  0.9955114  0.7649597

 Al 
  0.2549762  0.2399337  0.5079315

 Al 
  0.9998800  0.5118794  0.4932441

 Al 
  0.0154101  0.7721239  0.7601752

 Al 
  0.2542436  0.4712613  0.7577954

 Al 
  0.2455918  0.7608608  0.5123781

 Al 
  0.4947465  0.4642641  0.9851381

 Al 
  0.4711103  0.7591617  0.2435622

 Al 
  0.7407010  0.5132766  0.2183097

 Al 
  0.7413036  0.7593028  0.9985075

 Al 
  0.5038835  0.9771237  0.4899399

 Al 
  0.5012264  0.2399955  0.7563140

 Al 
  0.7414732  0.9775308  0.7490879

 Al 
  0.7566519  0.2697923  0.4945498

 Al 
  0.4868546  0.4884733  0.5061061

 Al 
  0.4998503  0.7412096  0.7423345

 Al 
  0.7668049  0.5207477  0.7621034

 Al 
  0.7515234  0.7472378  0.5000248

