32 
charge = 0 
 Al 
  0.0001992  0.9971635  0.0137691

 Al 
  0.9976759  0.2580281  0.2294825

 Al 
  0.2566135  0.0030568  0.2448060

 Al 
  0.2504529  0.2354463  0.0082075

 Al 
  0.5021336  0.9909584  0.0112742

 Al 
  0.5033625  0.2465992  0.2528452

 Al 
  0.7493082  0.0213900  0.2604958

 Al 
  0.7590936  0.2651428  0.0010482

 Al 
  0.0139449  0.5163643  0.9954124

 Al 
  0.9820925  0.7509579  0.2379548

 Al 
  0.2508391  0.4999406  0.2608967

 Al 
  0.2412492  0.7536149  0.0058425

 Al 
  0.9953307  0.0050146  0.4857507

 Al 
  0.0084179  0.2511794  0.7492698

 Al 
  0.2590169  0.9938295  0.7641317

 Al 
  0.2545060  0.2394448  0.5072905

 Al 
  0.0017091  0.5130550  0.4931414

 Al 
  0.0130031  0.7719878  0.7613942

 Al 
  0.2547720  0.4711883  0.7550183

 Al 
  0.2449730  0.7619511  0.5121331

 Al 
  0.4948728  0.4636912  0.9868831

 Al 
  0.4724667  0.7583065  0.2425920

 Al 
  0.7410079  0.5123150  0.2180796

 Al 
  0.7416922  0.7610279  0.9976684

 Al 
  0.5026113  0.9761188  0.4919917

 Al 
  0.5046755  0.2389312  0.7555913

 Al 
  0.7418878  0.9765742  0.7497686

 Al 
  0.7548141  0.2709185  0.4944693

 Al 
  0.4895612  0.4869462  0.5069229

 Al 
  0.4992426  0.7416452  0.7418148

 Al 
  0.7659299  0.5204953  0.7646107

 Al 
  0.7525457  0.7467167  0.4994431

