32 
charge = 0 
 Al 
  0.0001733  0.9970187  0.0135959

 Al 
  0.9976363  0.2572348  0.2290778

 Al 
  0.2568078  0.0030654  0.2452564

 Al 
  0.2500693  0.2347718  0.0088362

 Al 
  0.5023662  0.9909138  0.0114598

 Al 
  0.5033389  0.2462242  0.2525927

 Al 
  0.7497612  0.0209433  0.2609042

 Al 
  0.7590614  0.2651973  0.0005148

 Al 
  0.0141503  0.5166341  0.9947243

 Al 
  0.9820343  0.7510742  0.2378508

 Al 
  0.2509009  0.5002661  0.2611071

 Al 
  0.2417071  0.7539255  0.0064366

 Al 
  0.9953146  0.0052856  0.4855539

 Al 
  0.0090255  0.2512314  0.7492946

 Al 
  0.2584068  0.9942330  0.7643483

 Al 
  0.2546297  0.2395785  0.5074662

 Al 
  0.0012561  0.5127766  0.4931550

 Al 
  0.0136256  0.7720497  0.7611183

 Al 
  0.2546446  0.4711499  0.7557163

 Al 
  0.2451327  0.7617024  0.5122110

 Al 
  0.4948456  0.4637567  0.9864128

 Al 
  0.4720756  0.7585738  0.2428184

 Al 
  0.7409398  0.5125563  0.2180857

 Al 
  0.7415932  0.7606047  0.9978590

 Al 
  0.5029305  0.9763217  0.4914546

 Al 
  0.5037968  0.2392307  0.7557992

 Al 
  0.7417677  0.9767462  0.7496077

 Al 
  0.7552683  0.2706524  0.4944706

 Al 
  0.4888669  0.4872977  0.5067311

 Al 
  0.4994159  0.7415512  0.7419162

 Al 
  0.7661576  0.5205831  0.7640191

 Al 
  0.7522982  0.7468504  0.4996065

