32 
charge = 0 
 Al 
  0.9980991  0.9955745  0.0082632

 Al 
  0.9976820  0.2461611  0.2264257

 Al 
  0.2566445  0.0029417  0.2551037

 Al 
  0.2443852  0.2259876  0.0180263

 Al 
  0.5065244  0.9924521  0.0115997

 Al 
  0.5022883  0.2412158  0.2483132

 Al 
  0.7565999  0.0105824  0.2646404

 Al 
  0.7583288  0.2619734  0.9890822

 Al 
  0.0162356  0.5183729  0.9844698

 Al 
  0.9832224  0.7536595  0.2387072

 Al 
  0.2514975  0.5052349  0.2622395

 Al 
  0.2514380  0.7579563  0.0149881

 Al 
  0.9963480  0.0097409  0.4848535

 Al 
  0.0159695  0.2501361  0.7502252

 Al 
  0.2496411  0.0017252  0.7668469

 Al 
  0.2560306  0.2407777  0.5086704

 Al 
  0.9941241  0.5073895  0.4940349

 Al 
  0.0212799  0.7705126  0.7546631

 Al 
  0.2522932  0.4755581  0.7659868

 Al 
  0.2472180  0.7560195  0.5120836

 Al 
  0.4942342  0.4712279  0.9823474

 Al 
  0.4708381  0.7579922  0.2478578

 Al 
  0.7392035  0.5157282  0.2225397

 Al 
  0.7402047  0.7536137  0.0018774

 Al 
  0.5075132  0.9836605  0.4856529

 Al 
  0.4916885  0.2408037  0.7566197

 Al 
  0.7413593  0.9848819  0.7467378

 Al 
  0.7621937  0.2652294  0.4959693

 Al 
  0.4798710  0.4951797  0.5027808

 Al 
  0.5002116  0.7392208  0.7459123

 Al 
  0.7688753  0.5199322  0.7519962

 Al 
  0.7479543  0.7485607  0.5004864

