32 
charge = 0 
 Al 
  0.9946426  0.9944136  0.0012066

 Al 
  0.9975657  0.2406131  0.2290419

 Al 
  0.2529194  0.0020692  0.2654089

 Al 
  0.2419014  0.2226783  0.0230768

 Al 
  0.5099636  0.9957589  0.0086060

 Al 
  0.5014715  0.2390995  0.2451945

 Al 
  0.7603745  0.0000953  0.2636491

 Al 
  0.7572113  0.2560034  0.9781570

 Al 
  0.0157925  0.5173890  0.9792436

 Al 
  0.9871207  0.7554874  0.2421044

 Al 
  0.2502599  0.5079204  0.2602396

 Al 
  0.2596839  0.7598832  0.0189941

 Al 
  0.9992030  0.0125080  0.4877865

 Al 
  0.0179150  0.2474803  0.7514405

 Al 
  0.2450374  0.0074365  0.7674175

 Al 
  0.2563252  0.2411613  0.5074452

 Al 
  0.9900896  0.5029219  0.4943802

 Al 
  0.0238317  0.7665425  0.7483602

 Al 
  0.2504010  0.4843844  0.7714222

 Al 
  0.2482909  0.7506918  0.5105873

 Al 
  0.4943505  0.4829452  0.9836159

 Al 
  0.4762338  0.7527499  0.2535419

 Al 
  0.7374870  0.5159905  0.2305616

 Al 
  0.7395240  0.7487996  0.0044082

 Al 
  0.5097000  0.9934879  0.4852681

 Al 
  0.4850639  0.2387753  0.7548215

 Al 
  0.7429026  0.9956413  0.7448889

 Al 
  0.7656292  0.2596493  0.4981981

 Al 
  0.4762710  0.5026694  0.4992562

 Al 
  0.4987476  0.7378236  0.7513898

 Al 
  0.7693963  0.5173333  0.7410178

 Al 
  0.7446933  0.7495978  0.4992723

