32 
charge = 0 
 Al 
  0.9963244  0.9949916  0.0045641

 Al 
  0.9977241  0.2426390  0.2273996

 Al 
  0.2548673  0.0025816  0.2606950

 Al 
  0.2426835  0.2236845  0.0211673

 Al 
  0.5084724  0.9941538  0.0101988

 Al 
  0.5017672  0.2397951  0.2464878

 Al 
  0.7589723  0.0048017  0.2645079

 Al 
  0.7577781  0.2588461  0.9829971

 Al 
  0.0162851  0.5180053  0.9810566

 Al 
  0.9850540  0.7548055  0.2403631

 Al 
  0.2510891  0.5069514  0.2614301

 Al 
  0.2561841  0.7591741  0.0176278

 Al 
  0.9977266  0.0114499  0.4860910

 Al 
  0.0174187  0.2487624  0.7508935

 Al 
  0.2467514  0.0050839  0.7673469

 Al 
  0.2562942  0.2409769  0.5082187

 Al 
  0.9915573  0.5048463  0.4943629

 Al 
  0.0231226  0.7685337  0.7511707

 Al 
  0.2511930  0.4800394  0.7694805

 Al 
  0.2478875  0.7530122  0.5113744

 Al 
  0.4941599  0.4773675  0.9825962

 Al 
  0.4731919  0.7553970  0.2508712

 Al 
  0.7382258  0.5162257  0.2266249

 Al 
  0.7397641  0.7507846  0.0034986

 Al 
  0.5089327  0.9888347  0.4849624

 Al 
  0.4876392  0.2398916  0.7558005

 Al 
  0.7420338  0.9906651  0.7456376

 Al 
  0.7644572  0.2622420  0.4971845

 Al 
  0.4774157  0.4993924  0.5007772

 Al 
  0.4995557  0.7382679  0.7487983

 Al 
  0.7694013  0.5186649  0.7458542

 Al 
  0.7460695  0.7491325  0.4999629

