32 
charge = 0 
 Al 
  0.9969605  0.9952007  0.0058673

 Al 
  0.9977315  0.2436996  0.2269417

 Al 
  0.2555505  0.0027325  0.2587805

 Al 
  0.2431699  0.2243292  0.0202044

 Al 
  0.5078288  0.9935424  0.0107445

 Al 
  0.5019281  0.2402047  0.2470769

 Al 
  0.7582471  0.0067596  0.2646701

 Al 
  0.7579810  0.2599562  0.9850428

 Al 
  0.0163408  0.5181823  0.9820739

 Al 
  0.9843535  0.7544490  0.2397431

 Al 
  0.2512933  0.5064316  0.2617841

 Al 
  0.2546297  0.7588077  0.0168544

 Al 
  0.9972056  0.0109190  0.4855725

 Al 
  0.0170388  0.2492575  0.7506633

 Al 
  0.2476313  0.0039986  0.7672269

 Al 
  0.2562324  0.2409151  0.5084328

 Al 
  0.9923383  0.5056841  0.4942812

 Al 
  0.0226202  0.7692627  0.7523452

 Al 
  0.2515531  0.4784144  0.7684273

 Al 
  0.2476833  0.7540147  0.5116467

 Al 
  0.4941538  0.4751968  0.9823858

 Al 
  0.4722266  0.7563697  0.2498230

 Al 
  0.7385513  0.5161465  0.2251522

 Al 
  0.7398953  0.7516893  0.0030060

 Al 
  0.5085132  0.9870180  0.4850626

 Al 
  0.4888929  0.2402703  0.7561296

 Al 
  0.7417566  0.9886590  0.7459841

 Al 
  0.7637877  0.2632704  0.4967650

 Al 
  0.4781174  0.4979840  0.5014418

 Al 
  0.4998255  0.7385488  0.7477823

 Al 
  0.7692825  0.5191401  0.7479073

 Al 
  0.7466821  0.7489456  0.5001856

