32 
charge = 0 
 Al 
  0.9972650  0.9952997  0.0064960

 Al 
  0.9977254  0.2442763  0.2267611

 Al 
  0.2558611  0.0027957  0.2578362

 Al 
  0.2434459  0.2247005  0.0196884

 Al 
  0.5075021  0.9932491  0.0109908

 Al 
  0.5020148  0.2404349  0.2473813

 Al 
  0.7578573  0.0077348  0.2647072

 Al 
  0.7580751  0.2604908  0.9860675

 Al 
  0.0163408  0.5182516  0.9826333

 Al 
  0.9840367  0.7542585  0.2394560

 Al 
  0.2513687  0.5061494  0.2619301

 Al 
  0.2538352  0.7586085  0.0164237

 Al 
  0.9969680  0.0106356  0.4853522

 Al 
  0.0168086  0.2494938  0.7505495

 Al 
  0.2481053  0.0034379  0.7671477

 Al 
  0.2561915  0.2408841  0.5085169

 Al 
  0.9927615  0.5061098  0.4942292

 Al 
  0.0223256  0.7696042  0.7529330

 Al 
  0.2517375  0.4776459  0.7678518

 Al 
  0.2475731  0.7545208  0.5117705

 Al 
  0.4941637  0.4741486  0.9823276

 Al 
  0.4718083  0.7568214  0.2493119

 Al 
  0.7387159  0.5160722  0.2244530

 Al 
  0.7399671  0.7521595  0.0027387

 Al 
  0.5082818  0.9861368  0.4851616

 Al 
  0.4895587  0.2404349  0.7562757

 Al 
  0.7416366  0.9876764  0.7461648

 Al 
  0.7634177  0.2637753  0.4965583

 Al 
  0.4785147  0.4972749  0.5017784

 Al 
  0.4999431  0.7387060  0.7472910

 Al 
  0.7692008  0.5193592  0.7489406

 Al 
  0.7469964  0.7488503  0.5002797

