32 
charge = 0 
 Al 
  0.9959940  0.9948814  0.0038971

 Al 
  0.9977105  0.2421600  0.2276756

 Al 
  0.2544998  0.0024949  0.2616554

 Al 
  0.2424769  0.2234147  0.0216078

 Al 
  0.5087867  0.9944706  0.0099017

 Al 
  0.5016942  0.2396181  0.2462056

 Al 
  0.7593015  0.0038290  0.2643854

 Al 
  0.7576716  0.2582781  0.9819885

 Al 
  0.0162282  0.5179001  0.9806062

 Al 
  0.9854339  0.7549688  0.2406923

 Al 
  0.2509591  0.5071853  0.2612247

 Al 
  0.2569353  0.7593399  0.0179682

 Al 
  0.9980038  0.0116950  0.4863881

 Al 
  0.0175697  0.2485063  0.7510074

 Al 
  0.2463504  0.0056012  0.7673890

 Al 
  0.2563140  0.2410079  0.5080887

 Al 
  0.9912046  0.5044391  0.4943889

 Al 
  0.0233281  0.7681513  0.7505891

 Al 
  0.2510210  0.4808846  0.7699532

 Al 
  0.2479815  0.7525222  0.5112272

 Al 
  0.4941773  0.4784776  0.9827459

 Al 
  0.4737352  0.7548834  0.2514034

 Al 
  0.7380662  0.5162282  0.2273910

 Al 
  0.7397047  0.7503527  0.0037201

 Al 
  0.5091196  0.9897616  0.4849611

 Al 
  0.4870563  0.2396837  0.7556198

 Al 
  0.7421897  0.9916762  0.7454742

 Al 
  0.7647517  0.2617222  0.4973949

 Al 
  0.4771150  0.5000842  0.5004529

 Al 
  0.4994060  0.7381466  0.7493156

 Al 
  0.7694359  0.5184125  0.7448431

 Al 
  0.7457750  0.7492253  0.4998379

