32 
charge = 0 
 Al 
  0.9956599  0.9947688  0.0032251

 Al 
  0.9976870  0.2417170  0.2279801

 Al 
  0.2541186  0.0023996  0.2626108

 Al 
  0.2422937  0.2231783  0.0220199

 Al 
  0.5090936  0.9947911  0.0095923

 Al 
  0.5016286  0.2394584  0.2459346

 Al 
  0.7596084  0.0028674  0.2642369

 Al 
  0.7575603  0.2577063  0.9809960

 Al 
  0.0161502  0.5177850  0.9801978

 Al 
  0.9858324  0.7551186  0.2410326

 Al 
  0.2508106  0.5073994  0.2610007

 Al 
  0.2576642  0.7594933  0.0182763

 Al 
  0.9982934  0.0119252  0.4867073

 Al 
  0.0176934  0.2482488  0.7511200

 Al 
  0.2459779  0.0060975  0.7674162

 Al 
  0.2563277  0.2410413  0.5079464

 Al 
  0.9908804  0.5040406  0.4944037

 Al 
  0.0235013  0.7677578  0.7500149

 Al 
  0.2508539  0.4817472  0.7703864

 Al 
  0.2480694  0.7520420  0.5110737

 Al 
  0.4942045  0.4795963  0.9829254

 Al 
  0.4743144  0.7543587  0.2519393

 Al 
  0.7379127  0.5162071  0.2281706

 Al 
  0.7396515  0.7499381  0.0039231

 Al 
  0.5092904  0.9906948  0.4849921

 Al 
  0.4865069  0.2394646  0.7554292

 Al 
  0.7423556  0.9926835  0.7453183

 Al 
  0.7650178  0.2612012  0.4976028

 Al 
  0.4768502  0.5007599  0.5001374

 Al 
  0.4992488  0.7380402  0.7498366

 Al 
  0.7694532  0.5181513  0.7438493

 Al 
  0.7454891  0.7493193  0.4997042

