32 
charge = 0 
 Al 
  0.9939681  0.9941649  0.9998837

 Al 
  0.9974370  0.2400636  0.2298562

 Al 
  0.2520989  0.0018106  0.2671860

 Al 
  0.2417665  0.2225137  0.0236275

 Al 
  0.5104945  0.9963950  0.0079167

 Al 
  0.5014059  0.2389560  0.2447688

 Al 
  0.7607519  0.9983714  0.2631553

 Al 
  0.7569650  0.2549069  0.9764145

 Al 
  0.0154485  0.5170932  0.9788414

 Al 
  0.9880451  0.7556569  0.2428457

 Al 
  0.2498094  0.5081580  0.2596666

 Al 
  0.2608707  0.7600886  0.0193047

 Al 
  0.9998317  0.0128038  0.4885909

 Al 
  0.0179447  0.2469890  0.7516336

 Al 
  0.2445584  0.0081852  0.7673494

 Al 
  0.2562905  0.2412653  0.5070578

 Al 
  0.9897220  0.5022462  0.4943023

 Al 
  0.0238961  0.7657183  0.7473293

 Al 
  0.2501448  0.4861480  0.7718851

 Al 
  0.2484023  0.7498824  0.5102470

 Al 
  0.4945040  0.4851220  0.9841889

 Al 
  0.4776360  0.7516880  0.2545914

 Al 
  0.7372420  0.5157220  0.2321704

 Al 
  0.7394671  0.7481325  0.0046235

 Al 
  0.5098894  0.9953109  0.4855923

 Al 
  0.4842792  0.2383125  0.7543983

 Al 
  0.7432986  0.9975150  0.7446339

 Al 
  0.7658779  0.2586357  0.4985595

 Al 
  0.4760668  0.5038166  0.4987352

 Al 
  0.4983998  0.7377716  0.7523934

 Al 
  0.7692651  0.5167702  0.7392827

 Al 
  0.7442218  0.7497847  0.4989691

