32 
charge = 0 
 Al 
  0.9917219  0.9932590  0.9955411

 Al 
  0.9966784  0.2391961  0.2331741

 Al 
  0.2492921  0.0006844  0.2726660

 Al 
  0.2420004  0.2228677  0.0246646

 Al 
  0.5120242  0.9984753  0.0054378

 Al 
  0.5014405  0.2390092  0.2437095

 Al 
  0.7612655  0.9932602  0.2609401

 Al 
  0.7560245  0.2515185  0.9713913

 Al 
  0.0135860  0.5159064  0.9788377

 Al 
  0.9915771  0.7557522  0.2455336

 Al 
  0.2477736  0.5083065  0.2573771

 Al 
  0.2639869  0.7605515  0.0194310

 Al 
  0.0020036  0.0132320  0.4918148

 Al 
  0.0174224  0.2455076  0.7521694

 Al 
  0.2437515  0.0098089  0.7667120

 Al 
  0.2559849  0.2418680  0.5054428

 Al 
  0.9894139  0.5003626  0.4936055

 Al 
  0.0232241  0.7628706  0.7442206

 Al 
  0.2495768  0.4921266  0.7721437

 Al 
  0.2485867  0.7476895  0.5090392

 Al 
  0.4953987  0.4920821  0.9867333

 Al 
  0.4830479  0.7483120  0.2580404

 Al 
  0.7366752  0.5140723  0.2377259

 Al 
  0.7394584  0.7463158  0.0047374

 Al 
  0.5101010  0.0012598  0.4874412

 Al 
  0.4825838  0.2368806  0.7529107

 Al 
  0.7448035  0.0032300  0.7438778

 Al 
  0.7657764  0.2552683  0.4995421

 Al 
  0.4764343  0.5069254  0.4973764

 Al 
  0.4972241  0.7382036  0.7555455

 Al 
  0.7682095  0.5147555  0.7343003

 Al 
  0.7429508  0.7504468  0.4979209

