32 
charge = 0 
 Al 
  0.9923420  0.9935226  0.9967328

 Al 
  0.9969432  0.2392926  0.2321655

 Al 
  0.2500718  0.0010420  0.2712230

 Al 
  0.2418321  0.2226313  0.0244975

 Al 
  0.5116356  0.9979073  0.0061507

 Al 
  0.5013873  0.2389114  0.2439471

 Al 
  0.7612408  0.9945758  0.2616405

 Al 
  0.7563079  0.2524071  0.9726573

 Al 
  0.0142221  0.5162665  0.9786285

 Al 
  0.9905252  0.7558042  0.2447515

 Al 
  0.2484209  0.5083684  0.2580701

 Al 
  0.2632555  0.7604500  0.0195337

 Al 
  0.0013984  0.0132036  0.4908346

 Al 
  0.0176600  0.2458876  0.7520370

 Al 
  0.2438555  0.0095032  0.7669546

 Al 
  0.2560999  0.2416502  0.5059403

 Al 
  0.9893557  0.5008267  0.4938728

 Al 
  0.0235521  0.7636763  0.7450312

 Al 
  0.2496869  0.4904559  0.7722736

 Al 
  0.2485644  0.7482167  0.5093832

 Al 
  0.4950881  0.4902084  0.9859314

 Al 
  0.4814353  0.7492080  0.2570937

 Al 
  0.7367878  0.5146490  0.2361542

 Al 
  0.7394275  0.7467638  0.0047993

 Al 
  0.5101047  0.9996337  0.4868113

 Al 
  0.4829117  0.2372444  0.7533303

 Al 
  0.7443580  0.0017363  0.7440795

 Al 
  0.7659534  0.2562039  0.4993082

 Al 
  0.4761658  0.5061816  0.4976895

 Al 
  0.4975484  0.7379820  0.7547089

 Al 
  0.7686080  0.5153359  0.7355539

 Al 
  0.7432553  0.7502549  0.4982117

