32 
charge = 0 
 Al 
  0.9926588  0.9936525  0.9973430

 Al 
  0.9970620  0.2393842  0.2316766

 Al 
  0.2504690  0.0012103  0.2704643

 Al 
  0.2417764  0.2225521  0.0243775

 Al 
  0.5114277  0.9976152  0.0065059

 Al 
  0.5013737  0.2388855  0.2440857

 Al 
  0.7611925  0.9952750  0.2619722

 Al 
  0.7564452  0.2528761  0.9733404

 Al 
  0.0145092  0.5164398  0.9785852

 Al 
  0.9900116  0.7558066  0.2443654

 Al 
  0.2487265  0.5083684  0.2584055

 Al 
  0.2628434  0.7603918  0.0195461

 Al 
  0.0010891  0.0131615  0.4903619

 Al 
  0.0177541  0.2460905  0.7519652

 Al 
  0.2439434  0.0093028  0.7670586

 Al 
  0.2561482  0.2415561  0.5061791

 Al 
  0.9893681  0.5010804  0.4939854

 Al 
  0.0236758  0.7640810  0.7454594

 Al 
  0.2497574  0.4896094  0.7722798

 Al 
  0.2485446  0.7485087  0.5095565

 Al 
  0.4949483  0.4892369  0.9855515

 Al 
  0.4806482  0.7496782  0.2566086

 Al 
  0.7368596  0.5149064  0.2353646

 Al 
  0.7394226  0.7470063  0.0048042

 Al 
  0.5100886  0.9987983  0.4865242

 Al 
  0.4831209  0.2374425  0.7535419

 Al 
  0.7441401  0.0009480  0.7441835

 Al 
  0.7659980  0.2566791  0.4991770

 Al 
  0.4760792  0.5057670  0.4978689

 Al 
  0.4977142  0.7379004  0.7542708

 Al 
  0.7687775  0.5156242  0.7362296

 Al 
  0.7434248  0.7501609  0.4983602

