32 
charge = 0 
 Al 
  0.9933060  0.9939112  0.9985941

 Al 
  0.9972687  0.2396577  0.2307386

 Al 
  0.2512784  0.0015247  0.2688728

 Al 
  0.2417269  0.2224741  0.0240582

 Al 
  0.5109809  0.9970150  0.0072150

 Al 
  0.5013737  0.2388855  0.2444000

 Al 
  0.7610242  0.9967638  0.2625934

 Al 
  0.7567101  0.2538624  0.9748082

 Al 
  0.0150215  0.5167752  0.9786248

 Al 
  0.9890104  0.7557633  0.2435993

 Al 
  0.2492958  0.5083065  0.2590540

 Al 
  0.2619239  0.7602557  0.0194854

 Al 
  0.0004628  0.0130204  0.4894523

 Al 
  0.0178877  0.2465237  0.7518081

 Al 
  0.2441958  0.0088077  0.7672293

 Al 
  0.2562311  0.2413952  0.5066346

 Al 
  0.9894832  0.5016323  0.4941711

 Al 
  0.0238429  0.7648965  0.7463616

 Al 
  0.2499295  0.4878929  0.7721685

 Al 
  0.2484865  0.7491547  0.5099030

 Al 
  0.4947032  0.4872234  0.9848374

 Al 
  0.4791112  0.7506596  0.2556148

 Al 
  0.7370316  0.5153582  0.2337743

 Al 
  0.7394325  0.7475373  0.0047547

 Al 
  0.5100181  0.9970843  0.4860143

 Al 
  0.4836332  0.2378632  0.7539701

 Al 
  0.7437119  0.9992872  0.7444000

 Al 
  0.7659992  0.2576457  0.4988874

 Al 
  0.4760049  0.5048512  0.4982711

 Al 
  0.4980533  0.7377964  0.7533563

 Al 
  0.7690597  0.5161997  0.7376850

 Al 
  0.7437986  0.7499715  0.4986622

