32 
charge = 0 
 Al 
  0.9899572  0.9924472  0.9921699

 Al 
  0.9956487  0.2394980  0.2364475

 Al 
  0.2471165  0.9994320  0.2764331

 Al 
  0.2428964  0.2241362  0.0246287

 Al 
  0.5129932  0.0000631  0.0032919

 Al 
  0.5018081  0.2396676  0.2432578

 Al 
  0.7608274  0.9899225  0.2585441

 Al 
  0.7550752  0.2492488  0.9683295

 Al 
  0.0111764  0.5147171  0.9803574

 Al 
  0.9949421  0.7552176  0.2479692

 Al 
  0.2455485  0.5076580  0.2551223

 Al 
  0.2655289  0.7607767  0.0185610

 Al 
  0.0036805  0.0128843  0.4950498

 Al 
  0.0163631  0.2446055  0.7524813

 Al 
  0.2439706  0.0099908  0.7657121

 Al 
  0.2555232  0.2428221  0.5037845

 Al 
  0.9902220  0.4992698  0.4924744

 Al 
  0.0216264  0.7604611  0.7420907

 Al 
  0.2494765  0.4970088  0.7709024

 Al 
  0.2485409  0.7465138  0.5080206

 Al 
  0.4965880  0.4971907  0.9894634

 Al 
  0.4881565  0.7459928  0.2607012

 Al 
  0.7365861  0.5118497  0.2424212

 Al 
  0.7397394  0.7452069  0.0041520

 Al 
  0.5098460  0.0058401  0.4897691

 Al 
  0.4822435  0.2361034  0.7516856

 Al 
  0.7462168  0.0070776  0.7432553

 Al 
  0.7645834  0.2525321  0.5000149

 Al 
  0.4779602  0.5084971  0.4967861

 Al 
  0.4963331  0.7393619  0.7577360

 Al 
  0.7665239  0.5129573  0.7312447

 Al 
  0.7423024  0.7510532  0.4971425

