32 
charge = 0 
 Al 
  0.9905302  0.9927219  0.9932627

 Al 
  0.9960324  0.2393075  0.2353163

 Al 
  0.2478120  0.9998800  0.2752686

 Al 
  0.2425375  0.2236238  0.0247240

 Al 
  0.5127011  0.9995520  0.0040097

 Al 
  0.5016497  0.2393891  0.2433667

 Al 
  0.7610551  0.9909410  0.2593919

 Al 
  0.7554106  0.2499394  0.9692317

 Al 
  0.0120638  0.5151342  0.9797102

 Al 
  0.9937825  0.7554577  0.2471388

 Al 
  0.2463343  0.5079489  0.2559044

 Al 
  0.2651168  0.7607099  0.0189372

 Al 
  0.0031484  0.0130724  0.4939186

 Al 
  0.0167690  0.2448641  0.7523897

 Al 
  0.2438147  0.0100515  0.7660908

 Al 
  0.2556965  0.2424472  0.5043649

 Al 
  0.9898520  0.4995891  0.4929051

 Al 
  0.0222625  0.7612680  0.7427553

 Al 
  0.2494740  0.4953963  0.7714507

 Al 
  0.2485719  0.7468442  0.5083573

 Al 
  0.4961512  0.4955671  0.9884993

 Al 
  0.4864079  0.7467031  0.2598436

 Al 
  0.7365712  0.5126739  0.2408519

 Al 
  0.7396107  0.7455448  0.0044094

 Al 
  0.5099686  0.0043575  0.4889226

 Al 
  0.4822571  0.2363014  0.7520890

 Al 
  0.7457316  0.0058970  0.7434719

 Al 
  0.7650884  0.2534367  0.4998960

 Al 
  0.4773353  0.5080800  0.4969247

 Al 
  0.4966165  0.7388916  0.7570591

 Al 
  0.7671712  0.5135699  0.7321556

 Al 
  0.7424756  0.7508415  0.4973838

