32 
charge = 0 
 Al 
  0.9896775  0.9923073  0.9916341

 Al 
  0.9954433  0.2396243  0.2370266

 Al 
  0.2467811  0.9991943  0.2769813

 Al 
  0.2430944  0.2244245  0.0245520

 Al 
  0.5131281  0.0003119  0.0029330

 Al 
  0.5019009  0.2398297  0.2432169

 Al 
  0.7606839  0.9894448  0.2581011

 Al 
  0.7548995  0.2489295  0.9679224

 Al 
  0.0107012  0.5145005  0.9807324

 Al 
  0.9955373  0.7550752  0.2483924

 Al 
  0.2451401  0.5074860  0.2547201

 Al 
  0.2656997  0.7608076  0.0183432

 Al 
  0.0039354  0.0127630  0.4956364

 Al 
  0.0161415  0.2444928  0.7525222

 Al 
  0.2440783  0.0099154  0.7655054

 Al 
  0.2554292  0.2430350  0.5034837

 Al 
  0.9904423  0.4991238  0.4922392

 Al 
  0.0212675  0.7600527  0.7417739

 Al 
  0.2494889  0.4978120  0.7705819

 Al 
  0.2485199  0.7463690  0.5078523

 Al 
  0.4968219  0.4979766  0.9899671

 Al 
  0.4890463  0.7456611  0.2611195

 Al 
  0.7366108  0.5114041  0.2432095

 Al 
  0.7398186  0.7450473  0.0039998

 Al 
  0.5097706  0.0065665  0.4902195

 Al 
  0.4822732  0.2360292  0.7514863

 Al 
  0.7464655  0.0076296  0.7431414

 Al 
  0.7642914  0.2520828  0.5000594

 Al 
  0.4783167  0.5086654  0.4967378

 Al 
  0.4961957  0.7396317  0.7580553

 Al 
  0.7661675  0.5126442  0.7308264

 Al 
  0.7422318  0.7511621  0.4970311

