32 
charge = 0 
 Al 
  0.9891317  0.9920227  0.9905809

 Al 
  0.9950002  0.2399324  0.2382159

 Al 
  0.2461351  0.9986968  0.2780073

 Al 
  0.2435300  0.2250656  0.0243404

 Al 
  0.5133756  0.0007982  0.0022128

 Al 
  0.5021150  0.2401973  0.2431625

 Al 
  0.7603411  0.9885501  0.2571779

 Al 
  0.7545307  0.2483429  0.9671947

 Al 
  0.0096852  0.5140476  0.9815789

 Al 
  0.9967576  0.7547423  0.2492550

 Al 
  0.2442948  0.5070875  0.2538897

 Al 
  0.2659720  0.7608707  0.0178518

 Al 
  0.0044206  0.0124672  0.4968566

 Al 
  0.0156638  0.2443060  0.7525964

 Al 
  0.2443518  0.0096728  0.7650562

 Al 
  0.2552262  0.2435127  0.5028612

 Al 
  0.9909547  0.4988577  0.4917318

 Al 
  0.0204705  0.7592260  0.7411675

 Al 
  0.2495384  0.4994146  0.7698480

 Al 
  0.2484716  0.7461202  0.5075182

 Al 
  0.4973170  0.4994951  0.9910141

 Al 
  0.4908606  0.7450460  0.2619351

 Al 
  0.7366974  0.5104475  0.2447960

 Al 
  0.7400079  0.7447428  0.0036533

 Al 
  0.5095948  0.0079922  0.4911712

 Al 
  0.4823981  0.2359413  0.7510891

 Al 
  0.7469742  0.0086555  0.7428989

 Al 
  0.7636293  0.2511843  0.5001188

 Al 
  0.4791112  0.5089265  0.4966846

 Al 
  0.4959346  0.7402393  0.7586518

 Al 
  0.7653866  0.5120006  0.7300567

 Al 
  0.7421254  0.7513947  0.4968269

