32 
charge = 0 
 Al 
  0.9871838  0.9908222  0.9866913

 Al 
  0.9928506  0.2418049  0.2432899

 Al 
  0.2439793  0.9964123  0.2810950

 Al 
  0.2456821  0.2284318  0.0227637

 Al 
  0.5140439  0.0025704  0.9993404

 Al 
  0.5033241  0.2422244  0.2432936

 Al 
  0.7582892  0.9857433  0.2529801

 Al 
  0.7528229  0.2467836  0.9655104

 Al 
  0.0047943  0.5119487  0.9861319

 Al 
  0.0019999  0.7528464  0.2529132

 Al 
  0.2406663  0.5048314  0.2502611

 Al 
  0.2661749  0.7611702  0.0152579

 Al 
  0.0059502  0.0105453  0.5023378

 Al 
  0.0133954  0.2441488  0.7527734

 Al 
  0.2461747  0.0075194  0.7627828

 Al 
  0.2541941  0.2462353  0.5001027

 Al 
  0.9938654  0.4980570  0.4893161

 Al 
  0.0161366  0.7557064  0.7391156

 Al 
  0.2499765  0.5057584  0.7658284

 Al 
  0.2482612  0.7455633  0.5062064

 Al 
  0.4996040  0.5048908  0.9957304

 Al 
  0.4984258  0.7432850  0.2648322

 Al 
  0.7376070  0.5057089  0.2512982

 Al 
  0.7412764  0.7436550  0.0017276

 Al 
  0.5085342  0.0132679  0.4956166

 Al 
  0.4837124  0.2365403  0.7495495

 Al 
  0.7491708  0.0116331  0.7416465

 Al 
  0.7599661  0.2476511  0.4999307

 Al 
  0.4833511  0.5089179  0.4970843

 Al 
  0.4950745  0.7436476  0.7604327

 Al 
  0.7613274  0.5091555  0.7278043

 Al 
  0.7421848  0.7525209  0.4963541

