32 
charge = 0 
 Al 
  0.9866046  0.9903594  0.9854277

 Al 
  0.9919299  0.2426848  0.2452478

 Al 
  0.2433976  0.9954866  0.2817645

 Al 
  0.2465967  0.2299701  0.0218912

 Al 
  0.5141416  0.0031446  0.9983144

 Al 
  0.5039033  0.2431736  0.2434830

 Al 
  0.7572892  0.9850193  0.2512450

 Al 
  0.7521026  0.2465682  0.9654336

 Al 
  0.0026793  0.5110440  0.9882135

 Al 
  0.0040345  0.7519442  0.2543253

 Al 
  0.2393075  0.5037585  0.2488231

 Al 
  0.2658928  0.7613150  0.0141045

 Al 
  0.0063202  0.0095453  0.5045753

 Al 
  0.0124647  0.2443778  0.7527833

 Al 
  0.2471152  0.0062670  0.7617469

 Al 
  0.2537102  0.2475967  0.4989901

 Al 
  0.9952564  0.4978392  0.4883422

 Al 
  0.0140575  0.7542956  0.7385142

 Al 
  0.2502017  0.5080392  0.7639721

 Al 
  0.2482154  0.7455002  0.5057361

 Al 
  0.5005334  0.5065950  0.9976585

 Al 
  0.5012685  0.7429422  0.2657146

 Al 
  0.7382011  0.5036075  0.2537412

 Al 
  0.7419818  0.7432825  0.0008205

 Al 
  0.5079922  0.0149869  0.4974679

 Al 
  0.4844896  0.2372308  0.7490124

 Al 
  0.7500297  0.0122160  0.7410499

 Al 
  0.7582261  0.2463962  0.4996782

 Al 
  0.4853101  0.5084897  0.4974865

 Al 
  0.4948641  0.7453134  0.7608039

 Al 
  0.7594537  0.5079761  0.7272796

 Al 
  0.7424274  0.7530333  0.4963591

