32 
charge = 0 
 Al 
  0.9864363  0.9902072  0.9850391

 Al 
  0.9916180  0.2429867  0.2458938

 Al 
  0.2432367  0.9951785  0.2819217

 Al 
  0.2469049  0.2305059  0.0215707

 Al 
  0.5141540  0.0033229  0.9979865

 Al 
  0.5041075  0.2435053  0.2435622

 Al 
  0.7569365  0.9848188  0.2506571

 Al 
  0.7518576  0.2465447  0.9654782

 Al 
  0.0019529  0.5107309  0.9889350

 Al 
  0.0047065  0.7516299  0.2547918

 Al 
  0.2388706  0.5033823  0.2483441

 Al 
  0.2657566  0.7613682  0.0137097

 Al 
  0.0064155  0.0091852  0.5053277

 Al 
  0.0121553  0.2444916  0.7527783

 Al 
  0.2474531  0.0058079  0.7613831

 Al 
  0.2535370  0.2480867  0.4986164

 Al 
  0.9957465  0.4977749  0.4880241

 Al 
  0.0133186  0.7538166  0.7383372

 Al 
  0.2502797  0.5087731  0.7633261

 Al 
  0.2482092  0.7454916  0.5055839

 Al 
  0.5008428  0.5071172  0.9983070

 Al 
  0.5021954  0.7428692  0.2659757

 Al 
  0.7384288  0.5028798  0.2545431

 Al 
  0.7422454  0.7431637  0.0005012

 Al 
  0.5077954  0.0155141  0.4980917

 Al 
  0.4847743  0.2375229  0.7488416

 Al 
  0.7503143  0.0123385  0.7408383

 Al 
  0.7576135  0.2459940  0.4995743

 Al 
  0.4859945  0.5083003  0.4976486

 Al 
  0.4948121  0.7459061  0.7608856

 Al 
  0.7587966  0.5075726  0.7271422

 Al 
  0.7425350  0.7532127  0.4963851

