32 
charge = 0 
 Al 
  0.9856554  0.9890934  0.9826902

 Al 
  0.9892047  0.2452737  0.2506844

 Al 
  0.2425957  0.9929657  0.2819675

 Al 
  0.2492736  0.2349426  0.0185808

 Al 
  0.5138805  0.0044466  0.9957527

 Al 
  0.5058054  0.2462106  0.2444607

 Al 
  0.7539874  0.9839921  0.2460633

 Al 
  0.7499035  0.2471870  0.9670709

 Al 
  0.9960856  0.5081295  0.9947713

 Al 
  0.0095961  0.7490545  0.2582422

 Al 
  0.2359698  0.5002488  0.2447305

 Al 
  0.2639981  0.7618088  0.0106034

 Al 
  0.0067064  0.0060282  0.5110712

 Al 
  0.0098621  0.2460547  0.7525741

 Al 
  0.2503440  0.0016967  0.7583028

 Al 
  0.2519838  0.2524157  0.4957242

 Al 
  0.9998478  0.4973801  0.4858893

 Al 
  0.0068734  0.7499418  0.7374103

 Al 
  0.2508626  0.5138780  0.7580627

 Al 
  0.2483800  0.7455547  0.5044899

 Al 
  0.5031459  0.5103621  0.0033204

 Al 
  0.5088387  0.7429966  0.2673890

 Al 
  0.7406960  0.4969890  0.2604401

 Al 
  0.7447366  0.7423024  0.9978268

 Al 
  0.5059824  0.0186600  0.5028501

 Al 
  0.4873224  0.2409151  0.7477155

 Al 
  0.7523947  0.0120378  0.7390414

 Al 
  0.7524479  0.2432355  0.4984283

 Al 
  0.4916885  0.5061086  0.4993453

 Al 
  0.4948282  0.7510371  0.7607767

 Al 
  0.7532498  0.5043129  0.7266868

 Al 
  0.7438543  0.7547411  0.4970360

