32 
charge = 0 
 Al 
  0.9859153  0.9896206  0.9836865

 Al 
  0.9903755  0.2441835  0.2483949

 Al 
  0.2427702  0.9939991  0.2822100

 Al 
  0.2481263  0.2327125  0.0201587

 Al 
  0.5140983  0.0039528  0.9967712

 Al 
  0.5049540  0.2448641  0.2439570

 Al 
  0.7554713  0.9842372  0.2483132

 Al 
  0.7508688  0.2466895  0.9660116

 Al 
  0.9990038  0.5094426  0.9918754

 Al 
  0.0072892  0.7503329  0.2565974

 Al 
  0.2372618  0.5018229  0.2464717

 Al 
  0.2650153  0.7615873  0.0121256

 Al 
  0.0066643  0.0076469  0.5082954

 Al 
  0.0109537  0.2451339  0.7527127

 Al 
  0.2488751  0.0038142  0.7598696

 Al 
  0.2527919  0.2501856  0.4971338

 Al 
  0.9977835  0.4975521  0.4868385

 Al 
  0.0101864  0.7518799  0.7377617

 Al 
  0.2505854  0.5115180  0.7606839

 Al 
  0.2482377  0.7455015  0.5050059

 Al 
  0.5020469  0.5089525  0.0008824

 Al 
  0.5057225  0.7427801  0.2668383

 Al 
  0.7394733  0.4999158  0.2576308

 Al 
  0.7434149  0.7427095  0.9991795

 Al 
  0.5069403  0.0173432  0.5005544

 Al 
  0.4860081  0.2389944  0.7482191

 Al 
  0.7514096  0.0124672  0.7399473

 Al 
  0.7550579  0.2445015  0.4990607

 Al 
  0.4888248  0.5073338  0.4984209

 Al 
  0.4947181  0.7484172  0.7610007

 Al 
  0.7560591  0.5059378  0.7267759

 Al 
  0.7430981  0.7539676  0.4966153

