32 
charge = 0 
 Al 
  0.9856282  0.9888582  0.9823288

 Al 
  0.9886639  0.2457490  0.2517301

 Al 
  0.2426167  0.9925264  0.2816618

 Al 
  0.2498045  0.2360403  0.0177429

 Al 
  0.5137147  0.0046421  0.9953245

 Al 
  0.5062126  0.2468578  0.2447478

 Al 
  0.7532659  0.9839872  0.2450002

 Al 
  0.7494394  0.2475509  0.9677739

 Al 
  0.9946698  0.5074712  0.9961598

 Al 
  0.0106109  0.7484469  0.2589847

 Al 
  0.2354698  0.4994753  0.2439260

 Al 
  0.2634003  0.7619128  0.0098869

 Al 
  0.0066618  0.0052163  0.5123459

 Al 
  0.0093683  0.2466078  0.7524751

 Al 
  0.2510705  0.0006361  0.7575157

 Al 
  0.2515680  0.2535444  0.4950621

 Al 
  0.0008539  0.4973095  0.4855366

 Al 
  0.0051841  0.7489802  0.7373212

 Al 
  0.2509863  0.5148904  0.7568004

 Al 
  0.2485025  0.7455881  0.5042572

 Al 
  0.5036421  0.5109091  0.0044552

 Al 
  0.5102099  0.7432045  0.2675474

 Al 
  0.7413581  0.4955844  0.2617148

 Al 
  0.7454371  0.7421192  0.9971524

 Al 
  0.5054651  0.0191117  0.5039020

 Al 
  0.4879845  0.2420251  0.7475162

 Al 
  0.7528315  0.0116356  0.7386058

 Al 
  0.7511658  0.2426984  0.4980818

 Al 
  0.4930919  0.5054279  0.4998465

 Al 
  0.4949668  0.7523464  0.7605465

 Al 
  0.7518563  0.5035196  0.7267413

 Al 
  0.7442973  0.7551235  0.4973083

