32 
charge = 0 
 Al 
  0.9857507  0.9893483  0.9831419

 Al 
  0.9897777  0.2447490  0.2495718

 Al 
  0.2426464  0.9934582  0.2821531

 Al 
  0.2487117  0.2338300  0.0193877

 Al 
  0.5140092  0.0042164  0.9962353

 Al 
  0.5053834  0.2455435  0.2441958

 Al 
  0.7547263  0.9840738  0.2471697

 Al 
  0.7503812  0.2468974  0.9664794

 Al 
  0.9975323  0.5087867  0.9933394

 Al 
  0.0084847  0.7496857  0.2574452

 Al 
  0.2365700  0.5010334  0.2455807

 Al 
  0.2645389  0.7616999  0.0113522

 Al 
  0.0067088  0.0068412  0.5097173

 Al 
  0.0103906  0.2455621  0.7526533

 Al 
  0.2496089  0.0027610  0.7590887

 Al 
  0.2523934  0.2512920  0.4964160

 Al 
  0.9988194  0.4974605  0.4863274

 Al 
  0.0085441  0.7509084  0.7375575

 Al 
  0.2507289  0.5127518  0.7593609

 Al 
  0.2482934  0.7455250  0.5047386

 Al 
  0.5026137  0.5097112  0.0021249

 Al 
  0.5073400  0.7428518  0.2671539

 Al 
  0.7400661  0.4984382  0.2590763

 Al 
  0.7440609  0.7424991  0.9985038

 Al 
  0.5064737  0.0180697  0.5017313

 Al 
  0.4866616  0.2399027  0.7479506

 Al 
  0.7519195  0.0123187  0.7394906

 Al 
  0.7537498  0.2438382  0.4987575

 Al 
  0.4902616  0.5067472  0.4988676

 Al 
  0.4947453  0.7497215  0.7609302

 Al 
  0.7546557  0.5051210  0.7266979

 Al 
  0.7434533  0.7543550  0.4968034

