32 
charge = 0 
 Al 
  0.9860217  0.9897629  0.9839934

 Al 
  0.9906824  0.2438902  0.2477848

 Al 
  0.2428593  0.9942837  0.2821890

 Al 
  0.2478256  0.2321556  0.0205287

 Al 
  0.5141280  0.0038080  0.9970583

 Al 
  0.5047399  0.2445213  0.2438468

 Al 
  0.7558425  0.9843498  0.2488949

 Al 
  0.7511163  0.2466190  0.9658272

 Al 
  0.9997426  0.5097693  0.9911378

 Al 
  0.0066643  0.7506596  0.2561581

 Al 
  0.2376380  0.5022177  0.2469308

 Al 
  0.2652294  0.7615316  0.0125192

 Al 
  0.0066222  0.0080429  0.5075652

 Al 
  0.0112457  0.2449458  0.7527363

 Al 
  0.2485112  0.0043302  0.7602557

 Al 
  0.2529850  0.2496436  0.4975001

 Al 
  0.9972662  0.4976028  0.4871170

 Al 
  0.0109920  0.7523662  0.7378855

 Al 
  0.2505099  0.5108646  0.7613484

 Al 
  0.2482216  0.7454928  0.5051445

 Al 
  0.5017536  0.5085330  0.0002463

 Al 
  0.5048735  0.7427726  0.2666514

 Al 
  0.7391936  0.5006596  0.2568808

 Al 
  0.7431068  0.7428184  0.9995149

 Al 
  0.5071642  0.0169311  0.4999480

 Al 
  0.4856888  0.2385822  0.7483652

 Al 
  0.7511447  0.0124895  0.7401738

 Al 
  0.7557076  0.2448555  0.4992018

 Al 
  0.4881083  0.5076036  0.4982105

 Al 
  0.4947230  0.7477736  0.7610044

 Al 
  0.7567546  0.5063487  0.7268403

 Al 
  0.7429385  0.7537746  0.4965398

