32 
charge = 0 
 Al 
  0.9863286  0.9880649  0.9817410

 Al 
  0.9867049  0.2471437  0.2555864

 Al 
  0.2435164  0.9912702  0.2789775

 Al 
  0.2518081  0.2407938  0.0135847

 Al 
  0.5125439  0.0051433  0.9940312

 Al 
  0.5077496  0.2494703  0.2462947

 Al 
  0.7503391  0.9847891  0.2408420

 Al 
  0.7475447  0.2499282  0.9721375

 Al 
  0.9887864  0.5044602  0.0017388

 Al 
  0.0138681  0.7461957  0.2615885

 Al 
  0.2345713  0.4961586  0.2408272

 Al 
  0.2601109  0.7622581  0.0070751

 Al 
  0.0060566  0.0016967  0.5169484

 Al 
  0.0075689  0.2497735  0.7517648

 Al 
  0.2541075  0.9961747  0.7539887

 Al 
  0.2496597  0.2585280  0.4925140

 Al 
  0.0049478  0.4970447  0.4851839

 Al 
  0.9974915  0.7446884  0.7376070

 Al 
  0.2514220  0.5180597  0.7517016

 Al 
  0.2495768  0.7457527  0.5034181

 Al 
  0.5053970  0.5122556  0.0087520

 Al 
  0.5148087  0.7448022  0.2673840

 Al 
  0.7446612  0.4900030  0.2663643

 Al 
  0.7487785  0.7414868  0.9941599

 Al 
  0.5027635  0.0194644  0.5077014

 Al 
  0.4908519  0.2480744  0.7470571

 Al 
  0.7542572  0.0085949  0.7370167

 Al 
  0.7458542  0.2410128  0.4964346

 Al 
  0.4989592  0.5020618  0.5022412

 Al 
  0.4963480  0.7579625  0.7586555

 Al 
  0.7458641  0.5001695  0.7277350

 Al 
  0.7467576  0.7567212  0.4989468

