32 
charge = 0 
 Al 
  0.9856393  0.9887481  0.9821816

 Al 
  0.9884078  0.2459668  0.2522251

 Al 
  0.2426526  0.9923271  0.2814663

 Al 
  0.2500594  0.2365836  0.0173123

 Al 
  0.5136181  0.0047275  0.9951314

 Al 
  0.5064093  0.2471734  0.2449000

 Al 
  0.7529132  0.9840119  0.2444879

 Al 
  0.7492129  0.2477600  0.9681637

 Al 
  0.9939768  0.5071432  0.9968343

 Al 
  0.0110787  0.7481560  0.2593337

 Al 
  0.2352594  0.4990941  0.2435412

 Al 
  0.2630823  0.7619623  0.0095404

 Al 
  0.0066234  0.0048141  0.5129511

 Al 
  0.0091369  0.2469061  0.7524170

 Al 
  0.2514294  0.0001114  0.7571234

 Al 
  0.2513576  0.2541075  0.4947441

 Al 
  0.0013465  0.4972774  0.4853955

 Al 
  0.0043364  0.7485025  0.7372977

 Al 
  0.2510433  0.5153532  0.7561853

 Al 
  0.2485793  0.7456054  0.5041483

 Al 
  0.5038760  0.5111443  0.0049985

 Al 
  0.5108472  0.7433320  0.2675981

 Al 
  0.7416997  0.4949012  0.2623175

 Al 
  0.7457948  0.7420338  0.9968170

 Al 
  0.5051953  0.0192849  0.5043995

 Al 
  0.4883137  0.2426155  0.7474296

 Al 
  0.7530333  0.0113930  0.7383966

 Al 
  0.7505359  0.2424533  0.4979023

 Al 
  0.4937825  0.5050752  0.5001040

 Al 
  0.4950572  0.7529961  0.7604042

 Al 
  0.7511658  0.5031310  0.7267920

 Al 
  0.7445349  0.7553116  0.4974593

