32 
charge = 0 
 Al 
  0.9859475  0.9882766  0.9817608

 Al 
  0.9872680  0.2468244  0.2544453

 Al 
  0.2430783  0.9915561  0.2800950

 Al 
  0.2512103  0.2392357  0.0150488

 Al 
  0.5130080  0.0050381  0.9943555

 Al 
  0.5073029  0.2486523  0.2457341

 Al 
  0.7512499  0.9843832  0.2421155

 Al 
  0.7481412  0.2490211  0.9704767

 Al 
  0.9906638  0.5054861  0.9999975

 Al 
  0.0130229  0.7468455  0.2608534

 Al 
  0.2346196  0.4972390  0.2417764

 Al 
  0.2613101  0.7621727  0.0079402

 Al 
  0.0063165  0.0028439  0.5156267

 Al 
  0.0081036  0.2485991  0.7520519

 Al 
  0.2531471  0.9975892  0.7551668

 Al 
  0.2502983  0.2568907  0.4932850

 Al 
  0.0036718  0.4971313  0.4850614

 Al 
  0.0000730  0.7461227  0.7373917

 Al 
  0.2512945  0.5172467  0.7532944

 Al 
  0.2491151  0.7456933  0.5036657

 Al 
  0.5048946  0.5119846  0.0074650

 Al 
  0.5135501  0.7441649  0.2675870

 Al 
  0.7435040  0.4917195  0.2650005

 Al 
  0.7476375  0.7416613  0.9951537

 Al 
  0.5037387  0.0196451  0.5066024

 Al 
  0.4899201  0.2458764  0.7471326

 Al 
  0.7538835  0.0098052  0.7374623

 Al 
  0.7475311  0.2414522  0.4969853

 Al 
  0.4970917  0.5032239  0.5014306

 Al 
  0.4957415  0.7561519  0.7594339

 Al 
  0.7478058  0.5012512  0.7272697

 Al 
  0.7458579  0.7562126  0.4983355

