32 
charge = 0 
 Al 
  0.9864883  0.9880068  0.9817707

 Al 
  0.9865378  0.2472155  0.2559378

 Al 
  0.2436909  0.9912034  0.2785580

 Al 
  0.2519912  0.2413111  0.0130748

 Al 
  0.5123731  0.0051668  0.9939446

 Al 
  0.5078820  0.2497327  0.2464915

 Al 
  0.7500495  0.9849525  0.2404398

 Al 
  0.7473529  0.2502525  0.9727365

 Al 
  0.9881751  0.5041075  0.0022969

 Al 
  0.0140958  0.7460039  0.2618063

 Al 
  0.2346121  0.4958010  0.2405252

 Al 
  0.2596876  0.7622779  0.0068004

 Al 
  0.0059601  0.0013192  0.5173432

 Al 
  0.0074006  0.2501931  0.7516571

 Al 
  0.2544144  0.9957217  0.7535926

 Al 
  0.2494468  0.2590701  0.4922739

 Al 
  0.0053537  0.4970138  0.4852829

 Al 
  0.9966239  0.7442045  0.7377048

 Al 
  0.2514603  0.5182800  0.7511918

 Al 
  0.2497562  0.7457750  0.5033402

 Al 
  0.5055468  0.5123125  0.0091530

 Al 
  0.5151725  0.7450349  0.2672850

 Al 
  0.7450609  0.4894622  0.2667813

 Al 
  0.7491634  0.7414361  0.9938283

 Al 
  0.5024194  0.0193382  0.5080343

 Al 
  0.4911564  0.2488478  0.7470484

 Al 
  0.7543587  0.0081531  0.7368905

 Al 
  0.7453158  0.2408891  0.4962539

 Al 
  0.4995644  0.5016682  0.5025110

 Al 
  0.4965856  0.7585516  0.7583634

 Al 
  0.7452280  0.4998144  0.7279206

 Al 
  0.7470756  0.7568858  0.4991634

