32 
charge = 0 
 Al 
  0.9872939  0.9878583  0.9820665

 Al 
  0.9859722  0.2473194  0.2572162

 Al 
  0.2445337  0.9910846  0.2766336

 Al 
  0.2526558  0.2433939  0.0109029

 Al 
  0.5116021  0.0052040  0.9936884

 Al 
  0.5083164  0.2507475  0.2473343

 Al 
  0.7489691  0.9857519  0.2389374

 Al 
  0.7466140  0.2516447  0.9753700

 Al 
  0.9857903  0.5026174  0.0044404

 Al 
  0.0147443  0.7453629  0.2625452

 Al 
  0.2350688  0.4943703  0.2393718

 Al 
  0.2578796  0.7623051  0.0057547

 Al 
  0.0055344  0.9998193  0.5186872

 Al 
  0.0067583  0.2520185  0.7511608

 Al 
  0.2555727  0.9939991  0.7519739

 Al 
  0.2485941  0.2612197  0.4913940

 Al 
  0.0068747  0.4968764  0.4859809

 Al 
  0.9931006  0.7422194  0.7382246

 Al 
  0.2516039  0.5189199  0.7492426

 Al 
  0.2506151  0.7458802  0.5030456

 Al 
  0.5060740  0.5123979  0.0106356

 Al 
  0.5163680  0.7460584  0.2667417

 Al 
  0.7467304  0.4874660  0.2682788

 Al 
  0.7507289  0.7412814  0.9924905

 Al 
  0.5009368  0.0185065  0.5092050

 Al 
  0.4923630  0.2521410  0.7470880

 Al 
  0.7546433  0.0062076  0.7365143

 Al 
  0.7432701  0.2404930  0.4955621

 Al 
  0.5018984  0.5000631  0.5035741

 Al 
  0.4977315  0.7608472  0.7570281

 Al 
  0.7427367  0.4984035  0.7288290

 Al 
  0.7484283  0.7575207  0.5000804

