32 
charge = 0 
 Al 
  0.9878013  0.9878409  0.9823189

 Al 
  0.9857544  0.2472501  0.2577843

 Al 
  0.2450398  0.9911155  0.2755185

 Al 
  0.2529442  0.2444545  0.0097223

 Al 
  0.5111616  0.0051928  0.9936117

 Al 
  0.5084711  0.2512413  0.2477872

 Al 
  0.7484741  0.9862395  0.2382444

 Al 
  0.7462601  0.2523959  0.9768390

 Al 
  0.9846270  0.5018130  0.0054700

 Al 
  0.0149077  0.7451215  0.2628397

 Al 
  0.2354772  0.4936525  0.2388186

 Al 
  0.2568994  0.7622791  0.0052559

 Al 
  0.0053042  0.9990706  0.5192193

 Al 
  0.0064428  0.2530258  0.7508737

 Al 
  0.2561049  0.9931934  0.7511361

 Al 
  0.2481696  0.2622878  0.4910017

 Al 
  0.0075751  0.4967984  0.4865242

 Al 
  0.9912999  0.7411861  0.7385637

 Al 
  0.2516695  0.5190993  0.7483157

 Al 
  0.2511348  0.7459457  0.5029033

 Al 
  0.5062942  0.5123620  0.0113138

 Al 
  0.5168185  0.7466239  0.2663804

 Al 
  0.7476127  0.4865687  0.2689285

 Al 
  0.7515234  0.7412331  0.9918148

 Al 
  0.5001262  0.0178914  0.5097037

 Al 
  0.4929595  0.2539119  0.7471536

 Al 
  0.7547102  0.0051346  0.7364128

 Al 
  0.7423098  0.2403421  0.4952440

 Al 
  0.5030172  0.4992463  0.5040889

 Al 
  0.4984320  0.7619610  0.7562534

 Al 
  0.7415202  0.4976957  0.7293909

 Al 
  0.7491547  0.7578251  0.5005643

