32 
charge = 0 
 Al 
  0.9890389  0.9879437  0.9830355

 Al 
  0.9854586  0.2468417  0.2587842

 Al 
  0.2462242  0.9913705  0.2729568

 Al 
  0.2534367  0.2466388  0.0071333

 Al 
  0.5101616  0.0051173  0.9935622

 Al 
  0.5086320  0.2522078  0.2487463

 Al 
  0.7475830  0.9873905  0.2369685

 Al 
  0.7455732  0.2539924  0.9801012

 Al 
  0.9823561  0.5000495  0.0074650

 Al 
  0.0149040  0.7447985  0.2632803

 Al 
  0.2366665  0.4922108  0.2377419

 Al 
  0.2547832  0.7621269  0.0042857

 Al 
  0.0048228  0.9975719  0.5199941

 Al 
  0.0057967  0.2552423  0.7502153

 Al 
  0.2570591  0.9917059  0.7493911

 Al 
  0.2473331  0.2643953  0.4903247

 Al 
  0.0088498  0.4966314  0.4880229

 Al 
  0.9876219  0.7390080  0.7394114

 Al 
  0.2517908  0.5191835  0.7465596

 Al 
  0.2523712  0.7461103  0.5026125

 Al 
  0.5066593  0.5121504  0.0125637

 Al 
  0.5174434  0.7478491  0.2654720

 Al 
  0.7494790  0.4850020  0.2700312

 Al 
  0.7531248  0.7412071  0.9904633

 Al 
  0.4983627  0.0162579  0.5105354

 Al 
  0.4941426  0.2576976  0.7473788

 Al 
  0.7546829  0.0028142  0.7364103

 Al 
  0.7405203  0.2401032  0.4946983

 Al 
  0.5051594  0.4976041  0.5050592

 Al 
  0.5001052  0.7641206  0.7544825

 Al 
  0.7391602  0.4962539  0.7307609

 Al 
  0.7506955  0.7584018  0.5015556

