32 
charge = 0 
 Al 
  0.9880835  0.9878484  0.9824712

 Al 
  0.9856628  0.2471833  0.2580503

 Al 
  0.2453146  0.9911539  0.2749208

 Al 
  0.2530791  0.2449916  0.0091060

 Al 
  0.5109277  0.0051804  0.9935870

 Al 
  0.5085318  0.2514851  0.2480211

 Al 
  0.7482389  0.9865044  0.2379127

 Al 
  0.7460868  0.2527833  0.9776137

 Al 
  0.9840528  0.5013923  0.0059762

 Al 
  0.0149473  0.7450213  0.2629684

 Al 
  0.2357272  0.4932924  0.2385464

 Al 
  0.2563908  0.7622556  0.0050109

 Al 
  0.0051854  0.9986968  0.5194495

 Al 
  0.0062843  0.2535543  0.7507190

 Al 
  0.2563586  0.9928060  0.7507091

 Al 
  0.2479580  0.2628187  0.4908198

 Al 
  0.0079105  0.4967576  0.4868459

 Al 
  0.9903891  0.7406564  0.7387543

 Al 
  0.2517004  0.5191550  0.7478652

 Al 
  0.2514195  0.7459829  0.5028315

 Al 
  0.5063957  0.5123261  0.0116393

 Al 
  0.5170091  0.7469185  0.2661762

 Al 
  0.7480669  0.4861480  0.2692292

 Al 
  0.7519232  0.7412170  0.9914769

 Al 
  0.4997030  0.0175325  0.5099327

 Al 
  0.4932565  0.2548290  0.7471982

 Al 
  0.7547238  0.0045753  0.7363856

 Al 
  0.7418457  0.2402752  0.4950943

 Al 
  0.5035654  0.4988355  0.5043401

 Al 
  0.4988157  0.7625105  0.7558388

 Al 
  0.7409200  0.4973392  0.7297003

 Al 
  0.7495285  0.7579736  0.5008106

