32 
charge = 0 
 Al 
  0.9866640  0.9879573  0.9818177

 Al 
  0.9863806  0.2472699  0.2562757

 Al 
  0.2438803  0.9911514  0.2781137

 Al 
  0.2521682  0.2418284  0.0125526

 Al 
  0.5121925  0.0051841  0.9938666

 Al 
  0.5080046  0.2499913  0.2466945

 Al 
  0.7497686  0.9851307  0.2400488

 Al 
  0.7471635  0.2505866  0.9733590

 Al 
  0.9875712  0.5037473  0.0028452

 Al 
  0.0142976  0.7458245  0.2620105

 Al 
  0.2346815  0.4954433  0.2402294

 Al 
  0.2592533  0.7622927  0.0065319

 Al 
  0.0058586  0.0009430  0.5177132

 Al 
  0.0072360  0.2506262  0.7515420

 Al 
  0.2547151  0.9952775  0.7531929

 Al 
  0.2492339  0.2596097  0.4920412

 Al 
  0.0057485  0.4969816  0.4854104

 Al 
  0.9957514  0.7437157  0.7378162

 Al 
  0.2514975  0.5184756  0.7506918

 Al 
  0.2499493  0.7457985  0.5032647

 Al 
  0.5056903  0.5123546  0.0095416

 Al 
  0.5155091  0.7452775  0.2671724

 Al 
  0.7454668  0.4889387  0.2671811

 Al 
  0.7495520  0.7413903  0.9934954

 Al 
  0.5020655  0.0191797  0.5083498

 Al 
  0.4914608  0.2496399  0.7470472

 Al 
  0.7544478  0.0076927  0.7367766

 Al 
  0.7447886  0.2407764  0.4960757

 Al 
  0.5001596  0.5012710  0.5027796

 Al 
  0.4968417  0.7591344  0.7580553

 Al 
  0.7445980  0.4994617  0.7281224

 Al 
  0.7474011  0.7570479  0.4993849

