32 
charge = 0 
 Al 
  0.9914670  0.9885179  0.9846319

 Al 
  0.9854190  0.2454804  0.2599240

 Al 
  0.2484196  0.9922739  0.2682318

 Al 
  0.2539429  0.2500965  0.0026137

 Al 
  0.5083251  0.0048822  0.9937565

 Al 
  0.5084266  0.2536025  0.2502488

 Al 
  0.7465237  0.9895488  0.2353312

 Al 
  0.7445770  0.2565554  0.9858064

 Al 
  0.9791792  0.4969816  0.0103213

 Al 
  0.0140525  0.7447069  0.2635563

 Al 
  0.2393780  0.4901007  0.2361727

 Al 
  0.2512475  0.7615762  0.0028452

 Al 
  0.0041174  0.9953158  0.5203827

 Al 
  0.0047250  0.2590577  0.7490434

 Al 
  0.2581271  0.9898545  0.7466252

 Al 
  0.2461895  0.2673828  0.4896292

 Al 
  0.0103930  0.4964024  0.4913123

 Al 
  0.9820492  0.7354426  0.7411428

 Al 
  0.2519529  0.5186129  0.7442317

 Al 
  0.2547052  0.7464556  0.5021076

 Al 
  0.5070219  0.5115180  0.0141911

 Al 
  0.5177132  0.7498849  0.2636342

 Al 
  0.7524937  0.4833399  0.2711462

 Al 
  0.7554601  0.7413928  0.9885464

 Al 
  0.4953926  0.0128620  0.5113299

 Al 
  0.4958480  0.2638483  0.7479766

 Al 
  0.7542176  0.9990397  0.7370192

 Al 
  0.7382184  0.2398099  0.4942255

 Al 
  0.5080541  0.4952267  0.5062423

 Al 
  0.5032981  0.7670895  0.7512970

 Al 
  0.7359141  0.4940065  0.7335194

 Al 
  0.7531558  0.7591369  0.5029553

