32 
charge = 0 
 Al 
  0.9929174  0.9890166  0.9856418

 Al 
  0.9856047  0.2444656  0.2603138

 Al 
  0.2496795  0.9929583  0.2655029

 Al 
  0.2540790  0.2518811  0.0000854

 Al 
  0.5072534  0.0047164  0.9939842

 Al 
  0.5080961  0.2542523  0.2509752

 Al 
  0.7461376  0.9907950  0.2346505

 Al 
  0.7440869  0.2578400  0.9889721

 Al 
  0.9777845  0.4952799  0.0116702

 Al 
  0.0132605  0.7448233  0.2635105

 Al 
  0.2410982  0.4891305  0.2354252

 Al 
  0.2493713  0.7611294  0.0021175

 Al 
  0.0038092  0.9942169  0.5202143

 Al 
  0.0041285  0.2611207  0.7483986

 Al 
  0.2584352  0.9891528  0.7452329

 Al 
  0.2457180  0.2687058  0.4894659

 Al 
  0.0109623  0.4963257  0.4933691

 Al 
  0.9793847  0.7335639  0.7422207

 Al 
  0.2520321  0.5180276  0.7432627

 Al 
  0.2560517  0.7466672  0.5017945

 Al 
  0.5071222  0.5110923  0.0148767

 Al 
  0.5175561  0.7509504  0.2625142

 Al 
  0.7540468  0.4828845  0.2714346

 Al 
  0.7565182  0.7416081  0.9877246

 Al 
  0.4938221  0.0108336  0.5114833

 Al 
  0.4966140  0.2669806  0.7484023

 Al 
  0.7538080  0.9971437  0.7376405

 Al 
  0.7372890  0.2396441  0.4942020

 Al 
  0.5092904  0.4941686  0.5066383

 Al 
  0.5051433  0.7683481  0.7495273

 Al 
  0.7345169  0.4928828  0.7352235

 Al 
  0.7543797  0.7593968  0.5035221

