32 
charge = 0 
 Al 
  0.9901676  0.9881627  0.9837582

 Al 
  0.9853745  0.2462762  0.2594117

 Al 
  0.2472613  0.9917430  0.2707255

 Al 
  0.2537263  0.2483417  0.0049701

 Al 
  0.5092953  0.0050171  0.9936167

 Al 
  0.5086023  0.2529157  0.2494963

 Al 
  0.7470076  0.9884078  0.2361071

 Al 
  0.7450720  0.2552584  0.9828362

 Al 
  0.9807200  0.4985793  0.0089154

 Al 
  0.0146045  0.7446958  0.2634783

 Al 
  0.2378880  0.4911391  0.2369499

 Al 
  0.2530630  0.7619054  0.0035667

 Al 
  0.0044614  0.9964408  0.5203084

 Al 
  0.0052794  0.2570838  0.7496535

 Al 
  0.2576580  0.9907146  0.7480236

 Al 
  0.2467365  0.2659299  0.4899213

 Al 
  0.0096827  0.4965088  0.4895154

 Al 
  0.9848225  0.7372667  0.7402059

 Al 
  0.2518737  0.5190028  0.7453406

 Al 
  0.2534701  0.7462675  0.5023749

 Al 
  0.5068685  0.5118769  0.0134164

 Al 
  0.5176773  0.7488429  0.2646243

 Al 
  0.7509603  0.4840552  0.2706747

 Al 
  0.7543141  0.7412628  0.9894758

 Al 
  0.4969185  0.0146899  0.5110069

 Al 
  0.4950139  0.2607222  0.7476363

 Al 
  0.7545134  0.0009542  0.7366133

 Al 
  0.7393037  0.2399559  0.4944000

 Al 
  0.5066655  0.4963900  0.5057039

 Al 
  0.5016051  0.7656601  0.7529615

 Al 
  0.7374783  0.4951401  0.7320294

 Al 
  0.7519133  0.7587954  0.5022833

