32 
charge = 0 
 Al 
  0.9944867  0.9896589  0.9867593

 Al 
  0.9859339  0.2432590  0.2605762

 Al 
  0.2510111  0.9937800  0.2625897

 Al 
  0.2541335  0.2536619  0.9974246

 Al 
  0.5060925  0.0045320  0.9942936

 Al 
  0.5076122  0.2548488  0.2516497

 Al 
  0.7458604  0.9921143  0.2340788

 Al 
  0.7436006  0.2590565  0.9922702

 Al 
  0.9765952  0.4935152  0.0129449

 Al 
  0.0122556  0.7450299  0.2633360

 Al 
  0.2429929  0.4882691  0.2347310

 Al 
  0.2474840  0.7605552  0.0013811

 Al 
  0.0035518  0.9931798  0.5198121

 Al 
  0.0034924  0.2632036  0.7477353

 Al 
  0.2585577  0.9886404  0.7438914

 Al 
  0.2453455  0.2698394  0.4894510

 Al 
  0.0113707  0.4962972  0.4956166

 Al 
  0.9769355  0.7316655  0.7434211

 Al 
  0.2521175  0.5172776  0.7424620

 Al 
  0.2574736  0.7468838  0.5014244

 Al 
  0.5071704  0.5106257  0.0154572

 Al 
  0.5172182  0.7520024  0.2612890

 Al 
  0.7555789  0.4827113  0.2715361

 Al 
  0.7574439  0.7419076  0.9870650

 Al 
  0.4922665  0.0086926  0.5114462

 Al 
  0.4972786  0.2699990  0.7489122

 Al 
  0.7533092  0.9953591  0.7384746

 Al 
  0.7365452  0.2394349  0.4943493

 Al 
  0.5103349  0.4932776  0.5068598

 Al 
  0.5070751  0.7693617  0.7477105

 Al 
  0.7333424  0.4918123  0.7371108

 Al 
  0.7555344  0.7595466  0.5039392

