32 
charge = 0 
 Al 
  0.9939533  0.9894287  0.9863769

 Al 
  0.9858076  0.2436798  0.2605032

 Al 
  0.2505619  0.9934917  0.2635773

 Al 
  0.2541248  0.2530716  0.9983231

 Al 
  0.5064885  0.0045951  0.9941822

 Al 
  0.5077905  0.2546569  0.2514319

 Al 
  0.7459408  0.9916687  0.2342570

 Al 
  0.7437627  0.2586617  0.9911601

 Al 
  0.9769652  0.4941067  0.0125291

 Al 
  0.0126120  0.7449520  0.2634078

 Al 
  0.2423457  0.4885414  0.2349550

 Al 
  0.2481102  0.7607606  0.0016274

 Al 
  0.0036322  0.9935164  0.5199718

 Al 
  0.0037090  0.2625118  0.7479580

 Al 
  0.2585392  0.9887889  0.7443307

 Al 
  0.2454569  0.2694854  0.4894386

 Al 
  0.0112532  0.4962997  0.4948517

 Al 
  0.9777214  0.7322979  0.7430090

 Al 
  0.2520878  0.5175437  0.7427083

 Al 
  0.2569935  0.7468120  0.5015544

 Al 
  0.5071593  0.5107841  0.0152765

 Al 
  0.5173494  0.7516559  0.2617073

 Al 
  0.7550740  0.4827360  0.2715224

 Al 
  0.7571531  0.7417987  0.9872630

 Al 
  0.4927801  0.0094129  0.5114809

 Al 
  0.4970707  0.2690139  0.7487327

 Al 
  0.7534837  0.9959358  0.7381739

 Al 
  0.7367705  0.2395104  0.4942800

 Al 
  0.5100106  0.4935523  0.5068066

 Al 
  0.5064267  0.7690560  0.7483182

 Al 
  0.7337063  0.4921600  0.7364635

 Al 
  0.7551606  0.7595107  0.5038191

