32 
charge = 0 
 Al 
  0.9972365  0.9910413  0.9887666

 Al 
  0.9867977  0.2409373  0.2607408

 Al 
  0.2532944  0.9954025  0.2575021

 Al 
  0.2540332  0.2565244  0.9928345

 Al 
  0.5040147  0.0042139  0.9949532

 Al 
  0.5065022  0.2556854  0.2526001

 Al 
  0.7456438  0.9943839  0.2333969

 Al 
  0.7427887  0.2607804  0.9978578

 Al 
  0.9752116  0.4905735  0.0148532

 Al 
  0.0102124  0.7455076  0.2627741

 Al 
  0.2463418  0.4871789  0.2337619

 Al 
  0.2444483  0.7593040  0.0001349

 Al 
  0.0032560  0.9916724  0.5186847

 Al 
  0.0023551  0.2665116  0.7466487

 Al 
  0.2583016  0.9882605  0.7418865

 Al 
  0.2449866  0.2711759  0.4897691

 Al 
  0.0116566  0.4963937  0.4995508

 Al 
  0.9735855  0.7285728  0.7456302

 Al 
  0.2522944  0.5157802  0.7415561

 Al 
  0.2598980  0.7471944  0.5006596

 Al 
  0.5071482  0.5098460  0.0161601

 Al 
  0.5163123  0.7536273  0.2590887

 Al 
  0.7579699  0.4830739  0.2713244

 Al 
  0.7585837  0.7425808  0.9864722

 Al 
  0.4898706  0.0051359  0.5109277

 Al 
  0.4980694  0.2744357  0.7499282

 Al 
  0.7523712  0.9928729  0.7402851

 Al 
  0.7357680  0.2389387  0.4949978

 Al 
  0.5115873  0.4923011  0.5067769

 Al 
  0.5102879  0.7703406  0.7447391

 Al 
  0.7319922  0.4902703  0.7405413

 Al 
  0.7571766  0.7594797  0.5041978

