32 
charge = 0 
 Al 
  0.0031991  0.9953604  0.9933258

 Al 
  0.9900092  0.2352384  0.2602037

 Al 
  0.2580602  0.9997290  0.2461462

 Al 
  0.2529875  0.2619833  0.9827249

 Al 
  0.4991510  0.0036100  0.9966190

 Al 
  0.5030518  0.2567051  0.2538748

 Al 
  0.7460769  0.9991090  0.2331469

 Al 
  0.7408792  0.2624684  0.0095540

 Al 
  0.9753651  0.4848485  0.0179669

 Al 
  0.0048042  0.7467848  0.2605020

 Al 
  0.2534528  0.4866764  0.2328226

 Al 
  0.2388087  0.7551817  0.9972365

 Al 
  0.0031929  0.9895240  0.5146800

 Al 
  0.9994728  0.2719717  0.7447020

 Al 
  0.2557460  0.9895042  0.7389721

 Al 
  0.2454396  0.2712910  0.4918754

 Al 
  0.0104685  0.4974519  0.5075578

 Al 
  0.9704074  0.7226288  0.7509591

 Al 
  0.2529900  0.5122160  0.7415128

 Al 
  0.2647394  0.7472699  0.4981536

 Al 
  0.5067274  0.5086543  0.0164682

 Al 
  0.5132704  0.7561903  0.2538785

 Al 
  0.7620576  0.4865291  0.2697540

 Al 
  0.7589723  0.7446884  0.9881330

 Al 
  0.4863237  0.9987327  0.5076865

 Al 
  0.4981511  0.2800592  0.7527078

 Al 
  0.7504628  0.9906428  0.7456995

 Al 
  0.7361059  0.2371207  0.4981461

 Al 
  0.5122927  0.4928320  0.5045443

 Al 
  0.5161960  0.7687652  0.7392951

 Al 
  0.7319984  0.4884511  0.7485904

 Al 
  0.7591394  0.7577843  0.5025630

