32 
charge = 0 
 Al 
  0.0005445  0.9931823  0.9912566

 Al 
  0.9883285  0.2378719  0.2605688

 Al 
  0.2559700  0.9976561  0.2512994

 Al 
  0.2536038  0.2596542  0.9872902

 Al 
  0.5013923  0.0038624  0.9958665

 Al 
  0.5047659  0.2563833  0.2534231

 Al 
  0.7457477  0.9970447  0.2330466

 Al 
  0.7417826  0.2621034  0.0043896

 Al 
  0.9747203  0.4872816  0.0167356

 Al 
  0.0073660  0.7461858  0.2617024

 Al 
  0.2503341  0.4865663  0.2330244

 Al 
  0.2411774  0.7573004  0.9985941

 Al 
  0.0031323  0.9903086  0.5167244

 Al 
  0.0008601  0.2698691  0.7454817

 Al 
  0.2572323  0.9886008  0.7400240

 Al 
  0.2450275  0.2717291  0.4906935

 Al 
  0.0113212  0.4968133  0.5041310

 Al 
  0.9711017  0.7251522  0.7484815

 Al 
  0.2526063  0.5138186  0.7412108

 Al 
  0.2626726  0.7473689  0.4994505

 Al 
  0.5069774  0.5090689  0.0165375

 Al 
  0.5147975  0.7552139  0.2563054

 Al 
  0.7604153  0.4845379  0.2705943

 Al 
  0.7591679  0.7436315  0.9868212

 Al 
  0.4875934  0.0013192  0.5095206

 Al 
  0.4984011  0.2782870  0.7513663

 Al 
  0.7512537  0.9910512  0.7430239

 Al 
  0.7356121  0.2380625  0.4964346

 Al 
  0.5122865  0.4921279  0.5058957

 Al 
  0.5137815  0.7701389  0.7415314

 Al 
  0.7314898  0.4889894  0.7448901

 Al 
  0.7585342  0.7588189  0.5036830

