32 
charge = 0 
 Al 
  0.0021521  0.9944458  0.9925004

 Al 
  0.9892914  0.2362940  0.2603695

 Al 
  0.2572422  0.9988800  0.2482068

 Al 
  0.2532635  0.2610811  0.9845428

 Al 
  0.5000532  0.0037065  0.9963257

 Al 
  0.5037634  0.2566036  0.2537164

 Al 
  0.7459222  0.9983045  0.2330640

 Al 
  0.7412492  0.2624066  0.0075207

 Al 
  0.9749889  0.4857854  0.0175103

 Al 
  0.0058450  0.7465423  0.2610155

 Al 
  0.2522338  0.4865638  0.2328560

 Al 
  0.2397183  0.7560801  0.9977897

 Al 
  0.0031545  0.9898025  0.5155401

 Al 
  0.0000470  0.2712131  0.7449891

 Al 
  0.2564019  0.9890797  0.7393372

 Al 
  0.2452354  0.2715621  0.4913593

 Al 
  0.0108732  0.4971635  0.5062398

 Al 
  0.9705361  0.7235991  0.7499579

 Al 
  0.2528204  0.5128459  0.7413309

 Al 
  0.2639436  0.7473405  0.4987067

 Al 
  0.5068388  0.5087904  0.0165375

 Al 
  0.5139065  0.7558376  0.2548649

 Al 
  0.7614437  0.4856529  0.2701067

 Al 
  0.7591245  0.7442453  0.9874920

 Al 
  0.4867606  0.9996968  0.5084922

 Al 
  0.4983070  0.2795109  0.7521583

 Al 
  0.7507574  0.9906824  0.7445881

 Al 
  0.7358410  0.2375167  0.4974073

 Al 
  0.5123459  0.4924608  0.5051483

 Al 
  0.5152926  0.7694471  0.7401379

 Al 
  0.7316965  0.4886082  0.7471041

 Al 
  0.7589513  0.7582496  0.5030840

