32 
charge = 0 
 Al 
  0.0057213  0.9979023  0.9953678

 Al 
  0.9920635  0.2326333  0.2597013

 Al 
  0.2599896  0.0019529  0.2409881

 Al 
  0.2521298  0.2640736  0.9782585

 Al 
  0.4968690  0.0033872  0.9972687

 Al 
  0.5011274  0.2568054  0.2541520

 Al 
  0.7465769  0.0009740  0.2336122

 Al 
  0.7398965  0.2621331  0.0144349

 Al 
  0.9769962  0.4827385  0.0189075

 Al 
  0.0021360  0.7474085  0.2590057

 Al 
  0.2563091  0.4873546  0.2330231

 Al 
  0.2367432  0.7526249  0.9957886

 Al 
  0.0033439  0.9890043  0.5122977

 Al 
  0.9978999  0.2733441  0.7441538

 Al 
  0.2537882  0.9909151  0.7383719

 Al 
  0.2461747  0.2700646  0.4934001

 Al 
  0.0090800  0.4983528  0.5104834

 Al 
  0.9709383  0.7204569  0.7535283

 Al 
  0.2535233  0.5107482  0.7423011

 Al 
  0.2665227  0.7468974  0.4965559

 Al 
  0.5063784  0.5084971  0.0160487

 Al 
  0.5115353  0.7568561  0.2513019

 Al 
  0.7633545  0.4891453  0.2688134

 Al 
  0.7581803  0.7459086  0.9904448

 Al 
  0.4856579  0.9967427  0.5052510

 Al 
  0.4974642  0.2804775  0.7541310

 Al 
  0.7498861  0.9912591  0.7487067

 Al 
  0.7371640  0.2360576  0.5002859

 Al 
  0.5118670  0.4942528  0.5027004

 Al 
  0.5180585  0.7663074  0.7375105

 Al 
  0.7333028  0.4883781  0.7523316

 Al 
  0.7593238  0.7563462  0.5008750

