32 
charge = 0 
 Al 
  0.0076036  0.0001671  0.9969531

 Al 
  0.9939644  0.2306693  0.2592421

 Al 
  0.2613831  0.0037993  0.2368917

 Al 
  0.2512772  0.2655487  0.9748577

 Al 
  0.4950411  0.0032214  0.9976462

 Al 
  0.4994716  0.2567373  0.2542733

 Al 
  0.7470571  0.0022722  0.2342632

 Al 
  0.7390661  0.2613757  0.0180870

 Al 
  0.9789961  0.4813128  0.0194607

 Al 
  0.9999901  0.7479283  0.2575900

 Al 
  0.2583461  0.4882951  0.2334860

 Al 
  0.2353101  0.7502859  0.9945820

 Al 
  0.0034912  0.9887394  0.5101765

 Al 
  0.9964927  0.2738565  0.7439161

 Al 
  0.2519516  0.9923568  0.7382048

 Al 
  0.2469667  0.2685597  0.4948381

 Al 
  0.0076036  0.4992451  0.5123657

 Al 
  0.9721957  0.7190473  0.7556359

 Al 
  0.2540666  0.5097409  0.7432169

 Al 
  0.2676872  0.7463888  0.4950535

 Al 
  0.5060257  0.5085590  0.0154658

 Al 
  0.5100156  0.7571791  0.2491164

 Al 
  0.7641441  0.4916118  0.2680412

 Al 
  0.7571642  0.7469915  0.9930065

 Al 
  0.4855762  0.9955968  0.5029095

 Al 
  0.4966771  0.2798488  0.7552609

 Al 
  0.7496114  0.9924472  0.7513118

 Al 
  0.7383941  0.2351889  0.5022536

 Al 
  0.5112767  0.4958257  0.5009467

 Al 
  0.5190993  0.7636243  0.7364363

 Al 
  0.7348423  0.4886144  0.7553141

 Al 
  0.7592075  0.7549639  0.4992005

