32 
charge = 0 
 Al 
  0.0096852  0.0031583  0.9987860

 Al 
  0.9965831  0.2285555  0.2586617

 Al 
  0.2628620  0.0060764  0.2319898

 Al 
  0.2500520  0.2670610  0.9710794

 Al 
  0.4928568  0.0030296  0.9978454

 Al 
  0.4973566  0.2564935  0.2543203

 Al 
  0.7476845  0.0035568  0.2354339

 Al 
  0.7380278  0.2599166  0.0221784

 Al 
  0.9822261  0.4799304  0.0199124

 Al 
  0.9974481  0.7485867  0.2555839

 Al 
  0.2604673  0.4899151  0.2344426

 Al 
  0.2338362  0.7471214  0.9930956

 Al 
  0.0036706  0.9885501  0.5073548

 Al 
  0.9945968  0.2736968  0.7438951

 Al 
  0.2494703  0.9944260  0.7383471

 Al 
  0.2481437  0.2661440  0.4968182

 Al 
  0.0054193  0.5005086  0.5140043

 Al 
  0.9746659  0.7178308  0.7582620

 Al 
  0.2548661  0.5087916  0.7445708

 Al 
  0.2687045  0.7455101  0.4929471

 Al 
  0.5054960  0.5088288  0.0144597

 Al 
  0.5080058  0.7573350  0.2462848

 Al 
  0.7648050  0.4949767  0.2671031

 Al 
  0.7555356  0.7484295  0.9969445

 Al 
  0.4860490  0.9947329  0.4996411

 Al 
  0.4955732  0.2779565  0.7565195

 Al 
  0.7494963  0.9946537  0.7546904

 Al 
  0.7403136  0.2342099  0.5048995

 Al 
  0.5103225  0.4981449  0.4985657

 Al 
  0.5197936  0.7596010  0.7355651

 Al 
  0.7372048  0.4891973  0.7589018

 Al 
  0.7587805  0.7530766  0.4968974

