32 
charge = 0 
 Al 
  0.0092990  0.0025556  0.9984382

 Al 
  0.9960448  0.2289367  0.2587743

 Al 
  0.2625947  0.0056309  0.2329365

 Al 
  0.2503082  0.2667925  0.9717761

 Al 
  0.4932763  0.0030667  0.9978343

 Al 
  0.4977761  0.2565541  0.2543191

 Al 
  0.7475608  0.0033352  0.2351691

 Al 
  0.7382308  0.2602458  0.0214123

 Al 
  0.9815269  0.4801681  0.0198418

 Al 
  0.9979345  0.7484555  0.2560022

 Al 
  0.2600874  0.4895574  0.2342198

 Al 
  0.2340998  0.7477650  0.9933852

 Al 
  0.0036372  0.9885785  0.5079266

 Al 
  0.9949829  0.2738008  0.7438741

 Al 
  0.2499728  0.9939966  0.7382914

 Al 
  0.2478961  0.2666650  0.4964123

 Al 
  0.0058772  0.5002475  0.5137456

 Al 
  0.9741040  0.7180189  0.7577422

 Al 
  0.2546978  0.5089488  0.7442911

 Al 
  0.2685461  0.7457044  0.4933840

 Al 
  0.5056099  0.5087607  0.0146824

 Al 
  0.5084129  0.7573239  0.2468541

 Al 
  0.7647035  0.4942911  0.2672863

 Al 
  0.7558846  0.7481387  0.9961066

 Al 
  0.4859042  0.9948555  0.5003143

 Al 
  0.4957935  0.2784231  0.7562893

 Al 
  0.7495013  0.9941599  0.7540122

 Al 
  0.7399040  0.2343894  0.5043636

 Al 
  0.5105267  0.4976622  0.4990483

 Al 
  0.5197094  0.7604475  0.7356963

 Al 
  0.7367061  0.4890612  0.7582050

 Al 
  0.7588882  0.7534602  0.4973640

