32 
charge = 0 
 Al 
  0.0104017  0.0043562  0.9994431

 Al 
  0.9976734  0.2278687  0.2584464

 Al 
  0.2633483  0.0069403  0.2301643

 Al 
  0.2495310  0.2675375  0.9697923

 Al 
  0.4920511  0.0029565  0.9978169

 Al 
  0.4965311  0.2563561  0.2543117

 Al 
  0.7479258  0.0039466  0.2360056

 Al 
  0.7376330  0.2592124  0.0236176

 Al 
  0.9836840  0.4795171  0.0200238

 Al 
  0.9965224  0.7488454  0.2547287

 Al 
  0.2611542  0.4906713  0.2349339

 Al 
  0.2333597  0.7458331  0.9925350

 Al 
  0.0037337  0.9885068  0.5062113

 Al 
  0.9938233  0.2733837  0.7439755

 Al 
  0.2484679  0.9952911  0.7384969

 Al 
  0.2486473  0.2650611  0.4976375

 Al 
  0.0044849  0.5010309  0.5144102

 Al 
  0.9758725  0.7175474  0.7592842

 Al 
  0.2552114  0.5085293  0.7451277

 Al 
  0.2689483  0.7451030  0.4920610

 Al 
  0.5052634  0.5089798  0.0139845

 Al 
  0.5071878  0.7573276  0.2451512

 Al 
  0.7649621  0.4963442  0.2667442

 Al 
  0.7548154  0.7490124  0.9986721

 Al 
  0.4864054  0.9945584  0.4982860

 Al 
  0.4951475  0.2769046  0.7569378

 Al 
  0.7495124  0.9957007  0.7560356

 Al 
  0.7411589  0.2338845  0.5059675

 Al 
  0.5099030  0.4991176  0.4976028

 Al 
  0.5198827  0.7578684  0.7353671

 Al 
  0.7382234  0.4894919  0.7602520

 Al 
  0.7585355  0.7523167  0.4959730

