32 
charge = 0 
 Al 
  0.0110403  0.0055307  0.0000421

 Al 
  0.9987699  0.2272932  0.2582471

 Al 
  0.2637642  0.0077645  0.2284454

 Al 
  0.2490000  0.2679310  0.9686649

 Al 
  0.4913024  0.0028872  0.9977192

 Al 
  0.4957341  0.2562014  0.2542919

 Al 
  0.7481511  0.0042597  0.2366331

 Al 
  0.7372593  0.2584649  0.0249257

 Al 
  0.9852012  0.4791879  0.0200980

 Al 
  0.9956710  0.7490966  0.2538550

 Al 
  0.2617383  0.4914744  0.2354797

 Al 
  0.2329551  0.7445609  0.9920053

 Al 
  0.0037894  0.9884771  0.5050777

 Al 
  0.9930560  0.2729345  0.7441030

 Al 
  0.2474840  0.9961561  0.7386899

 Al 
  0.2491560  0.2639362  0.4984568

 Al 
  0.0035407  0.5015507  0.5146713

 Al 
  0.9771682  0.7173915  0.7602792

 Al 
  0.2555628  0.5083387  0.7456722

 Al 
  0.2690931  0.7446748  0.4911663

 Al 
  0.5050196  0.5091456  0.0134758

 Al 
  0.5063734  0.7572831  0.2440325

 Al 
  0.7650562  0.4976907  0.2663952

 Al 
  0.7540753  0.7495904  0.0004443

 Al 
  0.4868472  0.9944743  0.4969321

 Al 
  0.4947577  0.2757165  0.7572942

 Al 
  0.7495557  0.9968059  0.7573598

 Al 
  0.7420264  0.2336097  0.5070182

 Al 
  0.5094735  0.5000842  0.4966573

 Al 
  0.5198678  0.7561111  0.7352532

 Al 
  0.7392530  0.4898099  0.7615378

 Al 
  0.7582570  0.7515717  0.4950757

