32 
charge = 0 
 Al 
  0.0122754  0.0082904  0.0012537

 Al 
  0.0014863  0.2263811  0.2578461

 Al 
  0.2644671  0.0096060  0.2247079

 Al 
  0.2476622  0.2685300  0.9666304

 Al 
  0.4897369  0.0027276  0.9971474

 Al 
  0.4939223  0.2557646  0.2541879

 Al 
  0.7486263  0.0047238  0.2384090

 Al 
  0.7364586  0.2564984  0.0275778

 Al 
  0.9891255  0.4787176  0.0201426

 Al 
  0.9939310  0.7496844  0.2516286

 Al 
  0.2627333  0.4936179  0.2370440

 Al 
  0.2322620  0.7415487  0.9908557

 Al 
  0.0039045  0.9884412  0.5023501

 Al 
  0.9912232  0.2712774  0.7446191

 Al 
  0.2451661  0.9982328  0.7393174

 Al 
  0.2504034  0.2610341  0.5004468

 Al 
  0.0012215  0.5027845  0.5147134

 Al 
  0.9806532  0.7175697  0.7626120

 Al 
  0.2564452  0.5081692  0.7468912

 Al 
  0.2690040  0.7435647  0.4889424

 Al 
  0.5043946  0.5095800  0.0120897

 Al 
  0.5043773  0.7570219  0.2413556

 Al 
  0.7650042  0.5008564  0.2655500

 Al 
  0.7522128  0.7509715  0.0048847

 Al 
  0.4882654  0.9946117  0.4936525

 Al 
  0.4940226  0.2722836  0.7578845

 Al 
  0.7497537  0.9996906  0.7605329

 Al 
  0.7442082  0.2331890  0.5094760

 Al 
  0.5084092  0.5023712  0.4944285

 Al 
  0.5194223  0.7517623  0.7353213

 Al 
  0.7417752  0.4906552  0.7644461

 Al 
  0.7574439  0.7498428  0.4930548

