32 
charge = 0 
 Al 
  0.0127642  0.0097953  0.0017722

 Al 
  0.0030729  0.2262079  0.2576803

 Al 
  0.2646428  0.0105515  0.2228763

 Al 
  0.2468690  0.2686216  0.9659769

 Al 
  0.4890315  0.0026459  0.9965744

 Al 
  0.4929855  0.2554836  0.2540939

 Al 
  0.7488441  0.0048092  0.2396057

 Al 
  0.7360898  0.2553067  0.0287535

 Al 
  0.9914905  0.4786644  0.0200869

 Al 
  0.9931823  0.7500062  0.2502797

 Al 
  0.2630204  0.4949631  0.2381021

 Al 
  0.2320690  0.7399089  0.9903086

 Al 
  0.0039614  0.9884350  0.5008057

 Al 
  0.9902121  0.2699557  0.7450547

 Al 
  0.2438976  0.9993800  0.7397678

 Al 
  0.2511089  0.2592755  0.5015705

 Al 
  0.9999035  0.5034553  0.5143532

 Al 
  0.9828313  0.7180647  0.7638966

 Al 
  0.2569662  0.5082632  0.7474828

 Al 
  0.2686488  0.7429051  0.4876392

 Al 
  0.5040196  0.5098312  0.0111925

 Al 
  0.5032127  0.7567682  0.2398545

 Al 
  0.7647753  0.5025605  0.2650376

 Al 
  0.7511200  0.7517375  0.0074613

 Al 
  0.4892877  0.9948938  0.4917962

 Al 
  0.4937899  0.2699854  0.7580318

 Al 
  0.7499146  0.0014319  0.7623335

 Al 
  0.7454854  0.2331320  0.5107891

 Al 
  0.5078004  0.5036013  0.4932045

 Al 
  0.5189112  0.7492575  0.7355824

 Al 
  0.7432008  0.4911799  0.7659905

 Al 
  0.7568920  0.7489221  0.4920412

