32 
charge = 0 
 Al 
  0.0126219  0.0093077  0.0016163

 Al 
  0.0025481  0.2262338  0.2577286

 Al 
  0.2646045  0.0102495  0.2234518

 Al 
  0.2471326  0.2686142  0.9661477

 Al 
  0.4892468  0.0026719  0.9967848

 Al 
  0.4932837  0.2555777  0.2541285

 Al 
  0.7487773  0.0047943  0.2391961

 Al 
  0.7362024  0.2557027  0.0283946

 Al 
  0.9907047  0.4786644  0.0201116

 Al 
  0.9934063  0.7499010  0.2507302

 Al 
  0.2629499  0.4945114  0.2377395

 Al 
  0.2321147  0.7404398  0.9904782

 Al 
  0.0039429  0.9884362  0.5013131

 Al 
  0.9905413  0.2704223  0.7449000

 Al 
  0.2443097  0.9990075  0.7396131

 Al 
  0.2508787  0.2598621  0.5012029

 Al 
  0.0003354  0.5032387  0.5145030

 Al 
  0.9821011  0.7178679  0.7634783

 Al 
  0.2567942  0.5082162  0.7472996

 Al 
  0.2687924  0.7431229  0.4880699

 Al 
  0.5041446  0.5097495  0.0114970

 Al 
  0.5035988  0.7568610  0.2403458

 Al 
  0.7648681  0.5020110  0.2652109

 Al 
  0.7514801  0.7514876  0.0066135

 Al 
  0.4889350  0.9947861  0.4924051

 Al 
  0.4938481  0.2707688  0.7579996

 Al 
  0.7498589  0.0008527  0.7617408

 Al 
  0.7450646  0.2331345  0.5103671

 Al 
  0.5079996  0.5032053  0.4936030

 Al 
  0.5191005  0.7500804  0.7354784

 Al 
  0.7427343  0.4910042  0.7654906

 Al 
  0.7570801  0.7492191  0.4923605

