32 
charge = 0 
 Al 
  0.0131231  0.0116207  0.0022276

 Al 
  0.0051285  0.2264257  0.2575479

 Al 
  0.2645933  0.0116306  0.2209136

 Al 
  0.2458406  0.2684273  0.9657740

 Al 
  0.4883719  0.0025630  0.9955312

 Al 
  0.4919162  0.2551049  0.2539367

 Al 
  0.7490582  0.0047436  0.2413618

 Al 
  0.7357507  0.2537461  0.0298797

 Al 
  0.9945980  0.4788364  0.0199421

 Al 
  0.9925474  0.7504084  0.2484704

 Al 
  0.2630625  0.4968034  0.2396466

 Al 
  0.2320702  0.7379437  0.9897604

 Al 
  0.0040369  0.9884263  0.4988491

 Al 
  0.9889845  0.2678494  0.7457712

 Al 
  0.2423469  0.0007685  0.7404299

 Al 
  0.2519789  0.2569365  0.5029677

 Al 
  0.9982587  0.5042448  0.5134783

 Al 
  0.9857742  0.7191637  0.7654819

 Al 
  0.2576457  0.5085850  0.7480694

 Al 
  0.2678296  0.7420685  0.4859351

 Al 
  0.5035196  0.5101307  0.0099203

 Al 
  0.5016707  0.7563277  0.2379895

 Al 
  0.7642382  0.5045592  0.2643075

 Al 
  0.7497178  0.7526768  0.0107198

 Al 
  0.4908123  0.9954520  0.4894560

 Al 
  0.4937602  0.2666873  0.7580008

 Al 
  0.7501497  0.0037114  0.7646428

 Al 
  0.7471239  0.2333053  0.5123224

 Al 
  0.5070405  0.5050431  0.4916997

 Al 
  0.5179880  0.7460707  0.7361628

 Al 
  0.7449792  0.4918977  0.7678568

 Al 
  0.7560839  0.7478417  0.4909472

