32 
charge = 0 
 Al 
  0.0130229  0.0140030  0.0024380

 Al 
  0.0081209  0.2277746  0.2575541

 Al 
  0.2639201  0.0128806  0.2189595

 Al 
  0.2444037  0.2674447  0.9668853

 Al 
  0.4879659  0.0025123  0.9933221

 Al 
  0.4906688  0.2545456  0.2536459

 Al 
  0.7492253  0.0043562  0.2444124

 Al 
  0.7355985  0.2514640  0.0307237

 Al 
  0.9991387  0.4796074  0.0195919

 Al 
  0.9924001  0.7509727  0.2456958

 Al 
  0.2624288  0.4996572  0.2422949

 Al 
  0.2326568  0.7354698  0.9893421

 Al 
  0.0041792  0.9883830  0.4960646

 Al 
  0.9874165  0.2639659  0.7471326

 Al 
  0.2402752  0.0025395  0.7415338

 Al 
  0.2531261  0.2534058  0.5048463

 Al 
  0.9960410  0.5051767  0.5114041

 Al 
  0.9902616  0.7217613  0.7676056

 Al 
  0.2586369  0.5094092  0.7484667

 Al 
  0.2658445  0.7409757  0.4834068

 Al 
  0.5027486  0.5104710  0.0078041

 Al 
  0.4992785  0.7554564  0.2354723

 Al 
  0.7629288  0.5069514  0.2630130

 Al 
  0.7477291  0.7539231  0.0151626

 Al 
  0.4934248  0.9966078  0.4861740

 Al 
  0.4943530  0.2611888  0.7574873

 Al 
  0.7505012  0.0070232  0.7680152

 Al 
  0.7494431  0.2341332  0.5141441

 Al 
  0.5060232  0.5067583  0.4896453

 Al 
  0.5161267  0.7415833  0.7375130

 Al 
  0.7474296  0.4930672  0.7703666

 Al 
  0.7546792  0.7465274  0.4898780

