32 
charge = 0 
 Al 
  0.0122977  0.0156861  0.0021967

 Al 
  0.0105688  0.2299329  0.2577558

 Al 
  0.2628100  0.0135798  0.2182305

 Al 
  0.2433815  0.2659806  0.9691005

 Al 
  0.4881392  0.0025135  0.9908321

 Al 
  0.4899064  0.2541223  0.2533501

 Al 
  0.7492463  0.0038501  0.2474345

 Al 
  0.7358472  0.2496015  0.0307076

 Al 
  0.0028068  0.4807497  0.0191624

 Al 
  0.9930597  0.7514257  0.2432899

 Al 
  0.2612569  0.5021063  0.2448431

 Al 
  0.2337582  0.7338597  0.9893879

 Al 
  0.0043537  0.9883013  0.4938209

 Al 
  0.9864066  0.2600391  0.7485644

 Al 
  0.2387332  0.0037114  0.7425585

 Al 
  0.2539330  0.2503836  0.5062200

 Al 
  0.9944359  0.5057114  0.5090305

 Al 
  0.9940906  0.7248577  0.7691426

 Al 
  0.2594179  0.5102928  0.7483219

 Al 
  0.2634387  0.7403148  0.4812980

 Al 
  0.5020407  0.5105997  0.0057967

 Al 
  0.4970967  0.7545505  0.2336233

 Al 
  0.7613534  0.5083684  0.2616467

 Al 
  0.7461697  0.7548488  0.0183803

 Al 
  0.4959049  0.9978033  0.4836122

 Al 
  0.4954445  0.2559960  0.7566445

 Al 
  0.7507685  0.0096641  0.7708356

 Al 
  0.7512673  0.2353906  0.5152121

 Al 
  0.5052869  0.5077546  0.4880513

 Al 
  0.5141367  0.7380897  0.7390971

 Al 
  0.7493651  0.4941921  0.7723133

 Al 
  0.7532734  0.7457193  0.4895389

