32 
charge = 0 
 Al 
  0.0131442  0.0132531  0.0024293

 Al 
  0.0071321  0.2271818  0.2575244

 Al 
  0.2642245  0.0125118  0.2194805

 Al 
  0.2448641  0.2678667  0.9663272

 Al 
  0.4880253  0.0025197  0.9941500

 Al 
  0.4910413  0.2547287  0.2537498

 Al 
  0.7491894  0.0045171  0.2433320

 Al 
  0.7355985  0.2522189  0.0305492

 Al 
  0.9976400  0.4792807  0.0197267

 Al 
  0.9923395  0.7507883  0.2466326

 Al 
  0.2627320  0.4986931  0.2413643

 Al 
  0.2323783  0.7362321  0.9894263

 Al 
  0.0041260  0.9884040  0.4969791

 Al 
  0.9879004  0.2653582  0.7466388

 Al 
  0.2409373  0.0019912  0.7411514

 Al 
  0.2527647  0.2545914  0.5042486

 Al 
  0.9967464  0.5049007  0.5121912

 Al 
  0.9887530  0.7207651  0.7669299

 Al 
  0.2583102  0.5090961  0.7484011

 Al 
  0.2666106  0.7413123  0.4842495

 Al 
  0.5030122  0.5103745  0.0085417

 Al 
  0.5000965  0.7557757  0.2362754

 Al 
  0.7634350  0.5062361  0.2634795

 Al 
  0.7483776  0.7535258  0.0137444

 Al 
  0.4925103  0.9961846  0.4872420

 Al 
  0.4940684  0.2631045  0.7577199

 Al 
  0.7503874  0.0059341  0.7668940

 Al 
  0.7486869  0.2337768  0.5136008

 Al 
  0.5063462  0.5062472  0.4903086

 Al 
  0.5168098  0.7430437  0.7369982

 Al 
  0.7466351  0.4926600  0.7695584

 Al 
  0.7551780  0.7469247  0.4901577

