32 
charge = 0 
 Al 
  0.0126627  0.0150475  0.0023378

 Al 
  0.0095948  0.2289491  0.2576531

 Al 
  0.2633137  0.0133409  0.2184224

 Al 
  0.2437639  0.2666366  0.9680746

 Al 
  0.4880167  0.0025123  0.9919002

 Al 
  0.4901824  0.2542832  0.2534751

 Al 
  0.7492488  0.0040679  0.2461685

 Al 
  0.7357037  0.2503416  0.0307918

 Al 
  0.0013539  0.4802361  0.0193518

 Al 
  0.9927070  0.7512462  0.2442627

 Al 
  0.2617977  0.5011237  0.2437850

 Al 
  0.2332446  0.7344500  0.9893235

 Al 
  0.0042758  0.9883397  0.4947119

 Al 
  0.9867742  0.2616863  0.7479568

 Al 
  0.2393322  0.0032795  0.7421365

 Al 
  0.2536273  0.2516039  0.5056915

 Al 
  0.9950498  0.5055245  0.5100465

 Al 
  0.9925499  0.7235124  0.7685548

 Al 
  0.2591122  0.5099277  0.7484332

 Al 
  0.2644869  0.7405425  0.4821407

 Al 
  0.5023340  0.5105725  0.0066284

 Al 
  0.4979964  0.7549292  0.2343349

 Al 
  0.7620378  0.5078672  0.2622308

 Al 
  0.7467823  0.7544874  0.0171551

 Al 
  0.4948802  0.9973046  0.4846171

 Al 
  0.4949433  0.2581432  0.7570256

 Al 
  0.7506658  0.0086246  0.7697032

 Al 
  0.7505495  0.2348225  0.5148359

 Al 
  0.5055690  0.5074068  0.4886788

 Al 
  0.5149819  0.7394572  0.7384127

 Al 
  0.7485966  0.4937218  0.7715435

 Al 
  0.7538649  0.7460101  0.4896119

