32 
charge = 0 
 Al 
  0.0124932  0.0153730  0.0022746

 Al 
  0.0100824  0.2294206  0.2577001

 Al 
  0.2630724  0.0134684  0.2183097

 Al 
  0.2435684  0.2663197  0.9685647

 Al 
  0.4880687  0.0025135  0.9913779

 Al 
  0.4900401  0.2542015  0.2534144

 Al 
  0.7492488  0.0039614  0.2467922

 Al 
  0.7357680  0.2499703  0.0307621

 Al 
  0.0020828  0.4804836  0.0192602

 Al 
  0.9928679  0.7513366  0.2437775

 Al 
  0.2615403  0.5016150  0.2443085

 Al 
  0.2334884  0.7341456  0.9893483

 Al 
  0.0043141  0.9883211  0.4942651

 Al 
  0.9865836  0.2608745  0.7482538

 Al 
  0.2390290  0.0035023  0.7423457

 Al 
  0.2537832  0.2509950  0.5059601

 Al 
  0.9947379  0.5056235  0.5095490

 Al 
  0.9933196  0.7241671  0.7688543

 Al 
  0.2592669  0.5101096  0.7483862

 Al 
  0.2639770  0.7404225  0.4817187

 Al 
  0.5021892  0.5105911  0.0062175

 Al 
  0.4975509  0.7547423  0.2339748

 Al 
  0.7617036  0.5081295  0.2619450

 Al 
  0.7464742  0.7546693  0.0177788

 Al 
  0.4953876  0.9975509  0.4841109

 Al 
  0.4951834  0.2570813  0.7568425

 Al 
  0.7507178  0.0091481  0.7702688

 Al 
  0.7509096  0.2350960  0.5150327

 Al 
  0.5054267  0.5075887  0.4883632

 Al 
  0.5145673  0.7387679  0.7387468

 Al 
  0.7489815  0.4939533  0.7719296

 Al 
  0.7535741  0.7458591  0.4895649

