32 
charge = 0 
 Al 
  0.0131714  0.0128620  0.0024021

 Al 
  0.0066346  0.2269405  0.2575207

 Al 
  0.2643458  0.0123088  0.2197899

 Al 
  0.2451017  0.2680424  0.9661180

 Al 
  0.4880835  0.0025271  0.9945287

 Al 
  0.4912430  0.2548215  0.2537993

 Al 
  0.7491634  0.0045864  0.2428172

 Al 
  0.7356183  0.2525976  0.0304230

 Al 
  0.9968863  0.4791434  0.0197874

 Al 
  0.9923506  0.7506943  0.2470967

 Al 
  0.2628496  0.4982154  0.2409175

 Al 
  0.2322719  0.7366368  0.9894894

 Al 
  0.0041013  0.9884115  0.4974407

 Al 
  0.9881578  0.2660178  0.7464074

 Al 
  0.2412777  0.0017004  0.7409658

 Al 
  0.2525766  0.2551792  0.5039392

 Al 
  0.9971115  0.5047498  0.5125501

 Al 
  0.9880043  0.7203171  0.7665796

 Al 
  0.2581456  0.5089525  0.7483429

 Al 
  0.2669546  0.7414918  0.4846703

 Al 
  0.5031409  0.5103200  0.0088968

 Al 
  0.5004963  0.7559242  0.2366900

 Al 
  0.7636615  0.5058475  0.2636973

 Al 
  0.7487080  0.7533216  0.0130117

 Al 
  0.4920697  0.9959866  0.4877853

 Al 
  0.4939582  0.2640302  0.7578140

 Al 
  0.7503292  0.0053846  0.7663333

 Al 
  0.7483033  0.2336295  0.5133050

 Al 
  0.5065133  0.5059688  0.4906477

 Al 
  0.5171279  0.7437874  0.7367655

 Al 
  0.7462304  0.4924645  0.7691451

 Al 
  0.7554143  0.7471388  0.4903260

