32 
charge = 0 
 Al 
  0.0118286  0.0162739  0.0019999

 Al 
  0.0115316  0.2310814  0.2578882

 Al 
  0.2622284  0.0137580  0.2181724

 Al 
  0.2430461  0.2652369  0.9703084

 Al 
  0.4883285  0.0025098  0.9896725

 Al 
  0.4896664  0.2539788  0.2532152

 Al 
  0.7492327  0.0036199  0.2487773

 Al 
  0.7360551  0.2488726  0.0305232

 Al 
  0.0042312  0.4813425  0.0189434

 Al 
  0.9935325  0.7516051  0.2423048

 Al 
  0.2606208  0.5030840  0.2459457

 Al 
  0.2343745  0.7333486  0.9895154

 Al 
  0.0044428  0.9882568  0.4929409

 Al 
  0.9860960  0.2582966  0.7492203

 Al 
  0.2381602  0.0040877  0.7429942

 Al 
  0.2542127  0.2491498  0.5067175

 Al 
  0.9938666  0.5058611  0.5079303

 Al 
  0.9956364  0.7263465  0.7696859

 Al 
  0.2597074  0.5106579  0.7481399

 Al 
  0.2622766  0.7401478  0.4804626

 Al 
  0.5017313  0.5105849  0.0049267

 Al 
  0.4961574  0.7541545  0.2329551

 Al 
  0.7605985  0.5087768  0.2610081

 Al 
  0.7455770  0.7551990  0.0195114

 Al 
  0.4969667  0.9983194  0.4826370

 Al 
  0.4960287  0.2537597  0.7562076

 Al 
  0.7508675  0.0106715  0.7719680

 Al 
  0.7519702  0.2360452  0.5155153

 Al 
  0.5050208  0.5080318  0.4874363

 Al 
  0.5132295  0.7367742  0.7398470

 Al 
  0.7501324  0.4946909  0.7730731

 Al 
  0.7526447  0.7454779  0.4895550

