32 
charge = 0 
 Al 
  0.0084761  0.0180783  0.0005841

 Al 
  0.0154708  0.2381244  0.2588251

 Al 
  0.2588671  0.0136528  0.2195696

 Al 
  0.2423754  0.2610613  0.9775927

 Al 
  0.4897814  0.0022474  0.9837669

 Al 
  0.4890439  0.2536335  0.2524219

 Al 
  0.7491052  0.0025729  0.2555034

 Al 
  0.7377853  0.2459631  0.0285865

 Al 
  0.0099141  0.4848522  0.0175140

 Al 
  0.9969865  0.7523959  0.2379647

 Al 
  0.2567051  0.5069737  0.2511905

 Al 
  0.2384375  0.7323350  0.9908618

 Al 
  0.0049639  0.9879709  0.4892765

 Al 
  0.9856047  0.2497760  0.7526954

 Al 
  0.2360341  0.0048735  0.7450671

 Al 
  0.2551049  0.2437045  0.5084290

 Al 
  0.9919843  0.5060220  0.5022561

 Al 
  0.0022548  0.7346319  0.7714123

 Al 
  0.2606492  0.5118398  0.7464977

 Al 
  0.2558797  0.7404584  0.4770989

 Al 
  0.5001634  0.5097371  0.0007450

 Al 
  0.4915635  0.7524021  0.2306618

 Al 
  0.7564947  0.5093659  0.2574972

 Al 
  0.7433011  0.7566667  0.0230211

 Al 
  0.5019071  0.0005866  0.4788958

 Al 
  0.4994159  0.2431946  0.7536632

 Al 
  0.7512784  0.0143508  0.7767499

 Al 
  0.7548129  0.2399572  0.5158420

 Al 
  0.5040468  0.5082991  0.4849364

 Al 
  0.5085701  0.7319724  0.7438023

 Al 
  0.7535778  0.4972081  0.7763366

 Al 
  0.7494443  0.7450931  0.4907356

