32 
charge = 0 
 Al 
  0.0105750  0.0172677  0.0014554

 Al 
  0.0133917  0.2338634  0.2582422

 Al 
  0.2608584  0.0139065  0.2184644

 Al 
  0.2425536  0.2635142  0.9732229

 Al 
  0.4888805  0.0024603  0.9871318

 Al 
  0.4892951  0.2537560  0.2529021

 Al 
  0.7491820  0.0031385  0.2516670

 Al 
  0.7366665  0.2474778  0.0298649

 Al 
  0.0069452  0.4827496  0.0184063

 Al 
  0.9948258  0.7519591  0.2403284

 Al 
  0.2590713  0.5049626  0.2482563

 Al 
  0.2359289  0.7326135  0.9899634

 Al 
  0.0046532  0.9881442  0.4912343

 Al 
  0.9856777  0.2545815  0.7506745

 Al 
  0.2371083  0.0046396  0.7439013

 Al 
  0.2546879  0.2466759  0.5075974

 Al 
  0.9928778  0.5060381  0.5055146

 Al 
  0.9986931  0.7297423  0.7706190

 Al 
  0.2602186  0.5113225  0.7475670

 Al 
  0.2596319  0.7400426  0.4788538

 Al 
  0.5010643  0.5103906  0.0030964

 Al 
  0.4941698  0.7533451  0.2317719

 Al 
  0.7588944  0.5092978  0.2595664

 Al 
  0.7444693  0.7558722  0.0214272

 Al 
  0.4991671  0.9993676  0.4808153

 Al 
  0.4974135  0.2490929  0.7551792

 Al 
  0.7510569  0.0125266  0.7741981

 Al 
  0.7533130  0.2376058  0.5158792

 Al 
  0.5045406  0.5083573  0.4862581

 Al 
  0.5112445  0.7343634  0.7415177

 Al 
  0.7516670  0.4957663  0.7745656

 Al 
  0.7512796  0.7451574  0.4898569

