32 
charge = 0 
 Al 
  0.0079996  0.0181748  0.0003997

 Al 
  0.0158383  0.2390538  0.2589562

 Al 
  0.2584501  0.0135414  0.2198802

 Al 
  0.2424063  0.2605515  0.9785283

 Al 
  0.4899733  0.0021781  0.9831048

 Al 
  0.4890216  0.2536310  0.2523130

 Al 
  0.7490929  0.0024739  0.2562732

 Al 
  0.7380501  0.2457032  0.0282845

 Al 
  0.0104314  0.4853039  0.0173036

 Al 
  0.9974717  0.7524826  0.2375229

 Al 
  0.2561903  0.5073066  0.2517623

 Al 
  0.2390043  0.7323734  0.9910784

 Al 
  0.0050295  0.9879338  0.4889189

 Al 
  0.9856567  0.2488342  0.7531149

 Al 
  0.2358596  0.0048537  0.7452997

 Al 
  0.2551631  0.2431439  0.5085540

 Al 
  0.9918581  0.5059873  0.5015965

 Al 
  0.0029058  0.7356678  0.7715125

 Al 
  0.2606975  0.5118794  0.7462452

 Al 
  0.2550975  0.7406242  0.4768007

 Al 
  0.4999802  0.5095428  0.0002834

 Al 
  0.4910425  0.7522350  0.2304973

 Al 
  0.7559948  0.5093028  0.2570566

 Al 
  0.7431043  0.7568190  0.0232191

 Al 
  0.5024293  0.0008057  0.4785741

 Al 
  0.4998317  0.2420524  0.7533377

 Al 
  0.7513205  0.0146243  0.7772053

 Al 
  0.7550802  0.2404671  0.5157678

 Al 
  0.5039627  0.5082248  0.4847013

 Al 
  0.5080305  0.7316012  0.7442651

 Al 
  0.7539552  0.4975001  0.7766695

 Al 
  0.7490718  0.7451252  0.4909720

