32 
charge = 0 
 Al 
  0.0064885  0.0183196  0.9998626

 Al 
  0.0168185  0.2419348  0.2593683

 Al 
  0.2571878  0.0130897  0.2209730

 Al 
  0.2426427  0.2590231  0.9813871

 Al 
  0.4905438  0.0019071  0.9811990

 Al 
  0.4890104  0.2536657  0.2519591

 Al 
  0.7490731  0.0022128  0.2585256

 Al 
  0.7389065  0.2450312  0.0273229

 Al 
  0.0117989  0.4866974  0.0166069

 Al 
  0.9989840  0.7527387  0.2362816

 Al 
  0.2545963  0.5081320  0.2534058

 Al 
  0.2408012  0.7326766  0.9917863

 Al 
  0.0052287  0.9878261  0.4879313

 Al 
  0.9859512  0.2461215  0.7543735

 Al 
  0.2354351  0.0046619  0.7459853

 Al 
  0.2552856  0.2415648  0.5088350

 Al 
  0.9915846  0.5058302  0.4996510

 Al 
  0.0046978  0.7388335  0.7716883

 Al 
  0.2607507  0.5118459  0.7454297

 Al 
  0.2527338  0.7412876  0.4760371

 Al 
  0.4994357  0.5088263  0.9989456

 Al 
  0.4895104  0.7517969  0.2301297

 Al 
  0.7544837  0.5089773  0.2557052

 Al 
  0.7425957  0.7572620  0.0235644

 Al 
  0.5039045  0.0013873  0.4777561

 Al 
  0.5010717  0.2387790  0.7523365

 Al 
  0.7514492  0.0152307  0.7784243

 Al 
  0.7558091  0.2420499  0.5154188

 Al 
  0.5037387  0.5078857  0.4840713

 Al 
  0.5064428  0.7307349  0.7456314

 Al 
  0.7550691  0.4983689  0.7776137

 Al 
  0.7479692  0.7453047  0.4917925

