32 
charge = 0 
 Al 
  0.0038129  0.0180833  0.9991337

 Al 
  0.0180177  0.2468591  0.2600923

 Al 
  0.2551223  0.0119895  0.2232352

 Al 
  0.2434941  0.2565702  0.9861566

 Al 
  0.4914138  0.0012326  0.9784726

 Al 
  0.4891664  0.2538340  0.2512673

 Al 
  0.7491201  0.0019269  0.2619375

 Al 
  0.7404745  0.2442874  0.0256200

 Al 
  0.0134474  0.4890674  0.0152245

 Al 
  0.0015655  0.7531607  0.2345391

 Al 
  0.2518613  0.5088770  0.2558376

 Al 
  0.2440176  0.7337743  0.9930833

 Al 
  0.0055604  0.9876875  0.4865922

 Al 
  0.9868905  0.2421526  0.7563871

 Al 
  0.2350762  0.0039243  0.7470596

 Al 
  0.2553228  0.2393112  0.5090082

 Al 
  0.9914781  0.5054205  0.4966326

 Al 
  0.0070739  0.7441302  0.7715559

 Al 
  0.2604933  0.5112395  0.7439248

 Al 
  0.2488874  0.7429249  0.4752673

 Al 
  0.4985830  0.5071878  0.9969370

 Al 
  0.4871615  0.7513069  0.2299304

 Al 
  0.7520086  0.5080516  0.2534008

 Al 
  0.7420177  0.7579526  0.0233479

 Al 
  0.5059552  0.0020828  0.4769306

 Al 
  0.5030147  0.2340194  0.7506101

 Al 
  0.7516608  0.0154547  0.7798710

 Al 
  0.7567682  0.2447837  0.5144696

 Al 
  0.5034516  0.5069823  0.4833053

 Al 
  0.5039998  0.7301408  0.7477303

 Al 
  0.7568499  0.4997574  0.7789652

 Al 
  0.7462304  0.7458307  0.4934731

