32 
charge = 0 
 Al 
  0.9984530  0.0159064  0.9990186

 Al 
  0.0187936  0.2563301  0.2614895

 Al 
  0.2512611  0.0088040  0.2290270

 Al 
  0.2466796  0.2522586  0.9951339

 Al 
  0.4926031  0.9990298  0.9754022

 Al 
  0.4900624  0.2542943  0.2494159

 Al 
  0.7496337  0.0019368  0.2668667

 Al 
  0.7438209  0.2441364  0.0222452

 Al 
  0.0146354  0.4938246  0.0115291

 Al 
  0.0062942  0.7540394  0.2322175

 Al 
  0.2465187  0.5080627  0.2594141

 Al 
  0.2507648  0.7378125  0.9956982

 Al 
  0.0061160  0.9878211  0.4850898

 Al 
  0.9903631  0.2368422  0.7596740

 Al 
  0.2357693  0.0011843  0.7488936

 Al 
  0.2548463  0.2361801  0.5084167

 Al 
  0.9923370  0.5043933  0.4918593

 Al 
  0.0095441  0.7542015  0.7697540

 Al 
  0.2585478  0.5079551  0.7405772

 Al 
  0.2420338  0.7478961  0.4758118

 Al 
  0.4971858  0.5023204  0.9938778

 Al 
  0.4836704  0.7512066  0.2310034

 Al 
  0.7474209  0.5053450  0.2487364

 Al 
  0.7417145  0.7592099  0.0204656

 Al 
  0.5082521  0.0024009  0.4773786

 Al 
  0.5060566  0.2275642  0.7469618

 Al 
  0.7520902  0.0128112  0.7801780

 Al 
  0.7578845  0.2503539  0.5115427

 Al 
  0.5030209  0.5042609  0.4829340

 Al 
  0.5001510  0.7319650  0.7508836

 Al 
  0.7601864  0.5022586  0.7807163

 Al 
  0.7432862  0.7473900  0.4977848

