32 
charge = 0 
 Al 
  0.9994975  0.0165165  0.9988553

 Al 
  0.0188085  0.2545060  0.2612296

 Al 
  0.2520123  0.0095268  0.2277449

 Al 
  0.2459024  0.2530630  0.9934050

 Al 
  0.4924286  0.9995582  0.9757326

 Al 
  0.4898235  0.2542114  0.2498416

 Al 
  0.7494815  0.0018761  0.2661032

 Al 
  0.7431390  0.2440374  0.0229085

 Al 
  0.0145909  0.4928667  0.0123806

 Al 
  0.0054267  0.7538550  0.2325764

 Al 
  0.2475546  0.5084513  0.2588263

 Al 
  0.2494035  0.7368323  0.9951983

 Al 
  0.0060269  0.9877296  0.4852693

 Al 
  0.9895018  0.2376169  0.7591109

 Al 
  0.2354735  0.0018452  0.7485558

 Al 
  0.2549923  0.2366789  0.5086209

 Al 
  0.9920722  0.5045963  0.4926674

 Al 
  0.0092755  0.7522561  0.7702737

 Al 
  0.2590936  0.5088251  0.7412777

 Al 
  0.2433023  0.7467415  0.4754727

 Al 
  0.4974358  0.5034615  0.9943951

 Al 
  0.4842211  0.7511435  0.2306359

 Al 
  0.7482996  0.5059415  0.2496807

 Al 
  0.7416972  0.7589674  0.0212613

 Al 
  0.5079885  0.0024479  0.4770667

 Al 
  0.5055492  0.2285308  0.7477192

 Al 
  0.7520011  0.0136701  0.7804131

 Al 
  0.7577273  0.2492302  0.5122197

 Al 
  0.5031088  0.5048822  0.4828833

 Al 
  0.5008168  0.7313054  0.7503750

 Al 
  0.7595305  0.5017833  0.7804725

 Al 
  0.7438171  0.7470447  0.4968269

