32 
charge = 0 
 Al 
  0.0021806  0.0176637  0.9988738

 Al 
  0.0184743  0.2497834  0.2605292

 Al 
  0.2539293  0.0111542  0.2248094

 Al 
  0.2442577  0.2551940  0.9889399

 Al 
  0.4918544  0.0006893  0.9771917

 Al 
  0.4893557  0.2539738  0.2507821

 Al 
  0.7492104  0.0018502  0.2637023

 Al 
  0.7414608  0.2440659  0.0245916

 Al 
  0.0140748  0.4904906  0.0142555

 Al 
  0.0030753  0.7534169  0.2336939

 Al 
  0.2502240  0.5089402  0.2570863

 Al 
  0.2460188  0.7347495  0.9938864

 Al 
  0.0057497  0.9876541  0.4859797

 Al 
  0.9877135  0.2401812  0.7574922

 Al 
  0.2350824  0.0032610  0.7476523

 Al 
  0.2552510  0.2381937  0.5089501

 Al 
  0.9916031  0.5051210  0.4950114

 Al 
  0.0081209  0.7472402  0.7712267

 Al 
  0.2601134  0.5105378  0.7429620

 Al 
  0.2466982  0.7441971  0.4751324

 Al 
  0.4981214  0.5059465  0.9958876

 Al 
  0.4859277  0.7511621  0.2300517

 Al 
  0.7505779  0.5073276  0.2520110

 Al 
  0.7418185  0.7583436  0.0227910

 Al 
  0.5069019  0.0023254  0.4767722

 Al 
  0.5040580  0.2316507  0.7495483

 Al 
  0.7517870  0.0150958  0.7803426

 Al 
  0.7572001  0.2464445  0.5137184

 Al 
  0.5033154  0.5062744  0.4830293

 Al 
  0.5027004  0.7302869  0.7488342

 Al 
  0.7578721  0.5005433  0.7796272

 Al 
  0.7452713  0.7462452  0.4946401

