32 
charge = 0 
 Al 
  0.0010977  0.0172702  0.9987983

 Al 
  0.0186711  0.2516979  0.2608151

 Al 
  0.2531533  0.0105354  0.2259381

 Al 
  0.2448616  0.2543191  0.9907517

 Al 
  0.4921081  0.0002698  0.9765024

 Al 
  0.4895203  0.2540716  0.2504270

 Al 
  0.7492995  0.0018378  0.2647456

 Al 
  0.7421279  0.2440052  0.0239134

 Al 
  0.0143557  0.4914385  0.0135464

 Al 
  0.0040444  0.7535889  0.2332063

 Al 
  0.2491448  0.5088312  0.2578313

 Al 
  0.2473677  0.7355180  0.9944186

 Al 
  0.0058685  0.9876615  0.4856492

 Al 
  0.9883657  0.2390476  0.7581753

 Al 
  0.2351802  0.0027375  0.7480261

 Al 
  0.2551668  0.2375390  0.5088510

 Al 
  0.9917554  0.5049119  0.4940189

 Al 
  0.0086679  0.7492736  0.7709049

 Al 
  0.2597644  0.5099327  0.7422999

 Al 
  0.2453010  0.7451537  0.4751819

 Al 
  0.4978355  0.5050158  0.9952539

 Al 
  0.4851901  0.7511225  0.2302275

 Al 
  0.7496522  0.5067955  0.2510829

 Al 
  0.7417405  0.7585961  0.0222625

 Al 
  0.5074105  0.0024157  0.4768068

 Al 
  0.5046928  0.2302794  0.7488268

 Al 
  0.7518712  0.0146490  0.7804799

 Al 
  0.7574378  0.2475558  0.5131541

 Al 
  0.5032325  0.5057472  0.4829229

 Al 
  0.5019058  0.7305814  0.7494963

 Al 
  0.7585404  0.5010495  0.7800035

 Al 
  0.7446673  0.7465522  0.4954792

