32 
charge = 0 
 Al 
  0.9954742  0.0135699  0.0001881

 Al 
  0.0182206  0.2615254  0.2621380

 Al 
  0.2490347  0.0064267  0.2332372

 Al 
  0.2493614  0.2499579  0.0001522

 Al 
  0.4929459  0.9972155  0.9753329

 Al 
  0.4909782  0.2544466  0.2479679

 Al 
  0.7502413  0.0022586  0.2684644

 Al 
  0.7459024  0.2447651  0.0202614

 Al 
  0.0143050  0.4967576  0.0085998

 Al 
  0.0085800  0.7546470  0.2313883

 Al 
  0.2435845  0.5063227  0.2608373

 Al 
  0.2548228  0.7411960  0.9970571

 Al 
  0.0062584  0.9883706  0.4849067

 Al 
  0.9934508  0.2353497  0.7610638

 Al 
  0.2371739  0.9989357  0.7498564

 Al 
  0.2542844  0.2349995  0.5075714

 Al 
  0.9933283  0.5038835  0.4898965

 Al 
  0.0097446  0.7598151  0.7677293

 Al 
  0.2564489  0.5047498  0.7384016

 Al 
  0.2385649  0.7517710  0.4775444

 Al 
  0.4964841  0.4984048  0.9925672

 Al 
  0.4825256  0.7515977  0.2325912

 Al 
  0.7448740  0.5034689  0.2458418

 Al 
  0.7419633  0.7599302  0.0175437

 Al 
  0.5084637  0.0019417  0.4789528

 Al 
  0.5072694  0.2255965  0.7445993

 Al 
  0.7523835  0.0092706  0.7785209

 Al 
  0.7582088  0.2537931  0.5092656

 Al 
  0.5026979  0.5021954  0.4834674

 Al 
  0.4983949  0.7347297  0.7520234

 Al 
  0.7621652  0.5036236  0.7811012

 Al 
  0.7418643  0.7484852  0.5009306

