32 
charge = 0 
 Al 
  0.9964358  0.0144300  0.9996795

 Al 
  0.0185028  0.2598460  0.2619499

 Al 
  0.2497748  0.0072521  0.2317744

 Al 
  0.2484147  0.2507079  0.9985087

 Al 
  0.4928593  0.9978541  0.9751980

 Al 
  0.4906391  0.2544156  0.2484766

 Al 
  0.7500149  0.0021311  0.2680498

 Al 
  0.7452020  0.2445040  0.0209247

 Al 
  0.0144844  0.4957700  0.0096406

 Al 
  0.0078758  0.7544342  0.2316259

 Al 
  0.2445263  0.5069910  0.2604190

 Al 
  0.2534800  0.7399993  0.9966326

 Al 
  0.0062348  0.9881367  0.4849092

 Al 
  0.9923383  0.2357099  0.7606505

 Al 
  0.2366170  0.9997240  0.7495409

 Al 
  0.2544899  0.2353423  0.5078907

 Al 
  0.9929694  0.5040320  0.4904708

 Al 
  0.0097755  0.7579848  0.7684793

 Al 
  0.2572237  0.5059131  0.7391367

 Al 
  0.2396626  0.7504171  0.4768477

 Al 
  0.4967130  0.4997896  0.9929682

 Al 
  0.4828189  0.7514368  0.2319786

 Al 
  0.7457094  0.5041050  0.2468170

 Al 
  0.7418494  0.7596914  0.0185981

 Al 
  0.5084897  0.0021496  0.4783241

 Al 
  0.5069167  0.2260990  0.7454000

 Al 
  0.7522821  0.0106084  0.7792362

 Al 
  0.7581221  0.2526335  0.5100639

 Al 
  0.5028192  0.5029169  0.4832273

 Al 
  0.4989456  0.7336865  0.7517078

 Al 
  0.7615044  0.5031781  0.7810344

 Al 
  0.7423098  0.7481127  0.4998391

