32 
charge = 0 
 Al 
  0.9906131  0.0067113  0.0061111

 Al 
  0.0140550  0.2700671  0.2621467

 Al 
  0.2444743  0.0008502  0.2435053

 Al 
  0.2557497  0.2455547  0.0094488

 Al 
  0.4932516  0.9930140  0.9800431

 Al 
  0.4940226  0.2538921  0.2445683

 Al 
  0.7520234  0.0033439  0.2682689

 Al 
  0.7505247  0.2471350  0.0157282

 Al 
  0.0122333  0.5031607  0.0007351

 Al 
  0.0112730  0.7561457  0.2307720

 Al 
  0.2392555  0.5008960  0.2621071

 Al 
  0.2623236  0.7495854  0.9987699

 Al 
  0.0053562  0.9914212  0.4863559

 Al 
  0.0021261  0.2360353  0.7625489

 Al 
  0.2427640  0.9936612  0.7518254

 Al 
  0.2526608  0.2339488  0.5047423

 Al 
  0.9958418  0.5038983  0.4885303

 Al 
  0.0075219  0.7697725  0.7614536

 Al 
  0.2501126  0.4957465  0.7339426

 Al 
  0.2334761  0.7608955  0.4846332

 Al 
  0.4948975  0.4884981  0.9906267

 Al 
  0.4830664  0.7529615  0.2385278

 Al 
  0.7400599  0.4996758  0.2396565

 Al 
  0.7433060  0.7612148  0.0097050

 Al 
  0.5062571  0.9994084  0.4850243

 Al 
  0.5083511  0.2259455  0.7396020

 Al 
  0.7530951  0.9979419  0.7701846

 Al 
  0.7583449  0.2612037  0.5035122

 Al 
  0.5014554  0.4971140  0.4864054

 Al 
  0.4954680  0.7432689  0.7523761

 Al 
  0.7661910  0.5061569  0.7796990

 Al 
  0.7398483  0.7508762  0.5084414

