32 
charge = 0 
 Al 
  0.9921341  0.0094921  0.0033835

 Al 
  0.0161242  0.2674088  0.2624511

 Al 
  0.2461351  0.0029491  0.2395191

 Al 
  0.2533884  0.2471190  0.0062621

 Al 
  0.4931278  0.9945324  0.9774949

 Al 
  0.4926959  0.2542943  0.2458096

 Al 
  0.7513155  0.0028996  0.2689161

 Al 
  0.7487513  0.2461747  0.0175251

 Al 
  0.0131120  0.5007611  0.0038921

 Al 
  0.0106727  0.7555814  0.2308029

 Al 
  0.2404485  0.5030555  0.2619363

 Al 
  0.2598201  0.7463876  0.9983516

 Al 
  0.0059675  0.9899163  0.4854970

 Al 
  0.9986003  0.2352124  0.7622185

 Al 
  0.2402678  0.9956178  0.7510866

 Al 
  0.2533229  0.2341109  0.5059564

 Al 
  0.9948951  0.5036409  0.4885290

 Al 
  0.0087335  0.7664645  0.7640773

 Al 
  0.2527239  0.4993713  0.7355143

 Al 
  0.2349352  0.7574947  0.4814613

 Al 
  0.4955534  0.4923308  0.9912653

 Al 
  0.4823449  0.7524318  0.2358757

 Al 
  0.7417380  0.5009814  0.2419274

 Al 
  0.7426872  0.7608089  0.0127853

 Al 
  0.5074687  0.0005916  0.4823734

 Al 
  0.5081692  0.2251064  0.7414039

 Al 
  0.7528167  0.0026335  0.7740718

 Al 
  0.7583684  0.2584662  0.5057732

 Al 
  0.5020321  0.4990755  0.4850218

 Al 
  0.4964754  0.7398062  0.7525976

 Al 
  0.7647555  0.5052794  0.7806495

 Al 
  0.7404163  0.7500025  0.5055727

