32 
charge = 0 
 Al 
  0.9901465  0.0056185  0.0072843

 Al 
  0.0130872  0.2708529  0.2618967

 Al 
  0.2438704  0.0000730  0.2450448

 Al 
  0.2565851  0.2449978  0.0105366

 Al 
  0.4933382  0.9924954  0.9812707

 Al 
  0.4945894  0.2536558  0.2441426

 Al 
  0.7522932  0.0035159  0.2678419

 Al 
  0.7512239  0.2474890  0.0149881

 Al 
  0.0119066  0.5040580  0.9994914

 Al 
  0.0113460  0.7563413  0.2308475

 Al 
  0.2389832  0.5000842  0.2620613

 Al 
  0.2631318  0.7507772  0.9988565

 Al 
  0.0049948  0.9921328  0.4867952

 Al 
  0.0035308  0.2365118  0.7626095

 Al 
  0.2438357  0.9929546  0.7521100

 Al 
  0.2523959  0.2339661  0.5042300

 Al 
  0.9961821  0.5041087  0.4887184

 Al 
  0.0069526  0.7708591  0.7603782

 Al 
  0.2490669  0.4943134  0.7334030

 Al 
  0.2330949  0.7621244  0.4859982

 Al 
  0.4946104  0.4870440  0.9903940

 Al 
  0.4835206  0.7531484  0.2396837

 Al 
  0.7394782  0.4992513  0.2388310

 Al 
  0.7435783  0.7613286  0.0085268

 Al 
  0.5056866  0.9988862  0.4861381

 Al 
  0.5083597  0.2264925  0.7389659

 Al 
  0.7532028  0.9960806  0.7684570

 Al 
  0.7583127  0.2622061  0.5026323

 Al 
  0.5011942  0.4963702  0.4870217

 Al 
  0.4951017  0.7446178  0.7521645

 Al 
  0.7666935  0.5064601  0.7791644

 Al 
  0.7397060  0.7511868  0.5095169

