32 
charge = 0 
 Al 
  0.9889684  0.0007661  0.0131169

 Al 
  0.0073239  0.2723529  0.2595404

 Al 
  0.2415747  0.9969692  0.2518959

 Al 
  0.2594476  0.2427825  0.0142654

 Al 
  0.4943481  0.9909707  0.9886973

 Al 
  0.4975892  0.2518019  0.2428778

 Al 
  0.7533600  0.0041656  0.2646540

 Al 
  0.7546235  0.2487303  0.0109648

 Al 
  0.0107458  0.5078932  0.9938567

 Al 
  0.0102978  0.7568091  0.2321172

 Al 
  0.2394003  0.4968393  0.2609462

 Al 
  0.2653334  0.7556433  0.9987810

 Al 
  0.0020717  0.9965064  0.4896428

 Al 
  0.0099661  0.2395871  0.7624796

 Al 
  0.2495112  0.9903235  0.7534998

 Al 
  0.2511744  0.2346579  0.5014937

 Al 
  0.9973912  0.5061247  0.4910301

 Al 
  0.0037449  0.7742030  0.7550975

 Al 
  0.2443171  0.4877494  0.7316370

 Al 
  0.2329402  0.7666737  0.4931996

 Al 
  0.4929929  0.4808772  0.9892468

 Al 
  0.4869400  0.7537746  0.2460150

 Al 
  0.7374524  0.4982092  0.2355762

 Al 
  0.7450918  0.7613980  0.0035147

 Al 
  0.5024256  0.9960348  0.4918197

 Al 
  0.5080491  0.2306210  0.7367024

 Al 
  0.7536075  0.9878880  0.7589402

 Al 
  0.7579897  0.2661601  0.4987364

 Al 
  0.4997067  0.4932182  0.4905203

 Al 
  0.4935164  0.7505012  0.7501510

 Al 
  0.7683506  0.5074625  0.7751064

 Al 
  0.7397505  0.7523056  0.5138756

