32 
charge = 0 
 Al 
  0.9890043  0.0011930  0.0125637

 Al 
  0.0079600  0.2723751  0.2598559

 Al 
  0.2417455  0.9972167  0.2512784

 Al 
  0.2592681  0.2429719  0.0140166

 Al 
  0.4941921  0.9910351  0.9878744

 Al 
  0.4972786  0.2520420  0.2429335

 Al 
  0.7532783  0.0041223  0.2650351

 Al 
  0.7542869  0.2486523  0.0114017

 Al 
  0.0108188  0.5075541  0.9943654

 Al 
  0.0105044  0.7568103  0.2319155

 Al 
  0.2392320  0.4970942  0.2611195

 Al 
  0.2652492  0.7552460  0.9988157

 Al 
  0.0024516  0.9960113  0.4893136

 Al 
  0.0093795  0.2392505  0.7625192

 Al 
  0.2489270  0.9905128  0.7533600

 Al 
  0.2512883  0.2345490  0.5017796

 Al 
  0.9973120  0.5058549  0.4907096

 Al 
  0.0040765  0.7740174  0.7556111

 Al 
  0.2447416  0.4883483  0.7317410

 Al 
  0.2328301  0.7663470  0.4924595

 Al 
  0.4931662  0.4814019  0.9893681

 Al 
  0.4865242  0.7537362  0.2453492

 Al 
  0.7375885  0.4982253  0.2358361

 Al 
  0.7449322  0.7614326  0.0039441

 Al 
  0.5027721  0.9963331  0.4912480

 Al 
  0.5080974  0.2301198  0.7368571

 Al 
  0.7535840  0.9885934  0.7599401

 Al 
  0.7580330  0.2658458  0.4990817

 Al 
  0.4998663  0.4934855  0.4901391

 Al 
  0.4936600  0.7499889  0.7504171

 Al 
  0.7682565  0.5074043  0.7756213

 Al 
  0.7396899  0.7522289  0.5135290

