32 
charge = 0 
 Al 
  0.9891280  0.0020902  0.0114277

 Al 
  0.0091951  0.2723095  0.2604351

 Al 
  0.2421266  0.9977538  0.2499988

 Al 
  0.2588350  0.2433642  0.0134387

 Al 
  0.4939211  0.9912257  0.9862767

 Al 
  0.4966660  0.2524838  0.2430932

 Al 
  0.7530976  0.0040184  0.2657616

 Al 
  0.7536149  0.2484642  0.0122482

 Al 
  0.0109970  0.5068511  0.9954223

 Al 
  0.0108534  0.7567781  0.2315653

 Al 
  0.2389758  0.4976523  0.2614277

 Al 
  0.2649931  0.7543896  0.9988713

 Al 
  0.0031521  0.9950584  0.4886837

 Al 
  0.0081654  0.2385884  0.7625811

 Al 
  0.2477687  0.9909423  0.7530828

 Al 
  0.2515197  0.2343547  0.5023439

 Al 
  0.9971239  0.5053574  0.4901230

 Al 
  0.0047386  0.7735521  0.7566482

 Al 
  0.2456289  0.4895871  0.7319972

 Al 
  0.2326915  0.7656057  0.4909918

 Al 
  0.4935065  0.4825157  0.9896032

 Al 
  0.4857371  0.7536434  0.2440362

 Al 
  0.7379053  0.4983182  0.2363992

 Al 
  0.7446154  0.7614722  0.0048488

 Al 
  0.5034553  0.9969234  0.4901069

 Al 
  0.5081865  0.2291718  0.7372135

 Al 
  0.7535221  0.9900908  0.7619140

 Al 
  0.7581135  0.2651639  0.4998020

 Al 
  0.5001807  0.4940535  0.4893990

 Al 
  0.4939557  0.7489109  0.7509096

 Al 
  0.7680189  0.5072571  0.7765742

 Al 
  0.7396070  0.7520506  0.5127716

