32 
charge = 0 
 Al 
  0.9894510  0.0035345  0.0096691

 Al 
  0.0109512  0.2719271  0.2611702

 Al 
  0.2427986  0.9986659  0.2479654

 Al 
  0.2580058  0.2440090  0.0123670

 Al 
  0.4936092  0.9916576  0.9840119

 Al 
  0.4957626  0.2530543  0.2434533

 Al 
  0.7527833  0.0038265  0.2667504

 Al 
  0.7526001  0.2481041  0.0134573

 Al 
  0.0113348  0.5057213  0.9971004

 Al 
  0.0112049  0.7566457  0.2311655

 Al 
  0.2388025  0.4986077  0.2617853

 Al 
  0.2643817  0.7529553  0.9989122

 Al 
  0.0040555  0.9937256  0.4878125

 Al 
  0.0062460  0.2376392  0.7626330

 Al 
  0.2460571  0.9917108  0.7526682

 Al 
  0.2518836  0.2341295  0.5031682

 Al 
  0.9967724  0.5047263  0.4893891

 Al 
  0.0057175  0.7726066  0.7582310

 Al 
  0.2470472  0.4915450  0.7325033

 Al 
  0.2326902  0.7642802  0.4888211

 Al 
  0.4939978  0.4843399  0.9899436

 Al 
  0.4846790  0.7534627  0.2421204

 Al 
  0.7384907  0.4986053  0.2373509

 Al 
  0.7441562  0.7614635  0.0063314

 Al 
  0.5044466  0.9977860  0.4884003

 Al 
  0.5082917  0.2278922  0.7378694

 Al 
  0.7533996  0.9925313  0.7647963

 Al 
  0.7582149  0.2640043  0.5009603

 Al 
  0.5006324  0.4949854  0.4883409

 Al 
  0.4944235  0.7471660  0.7515408

 Al 
  0.7675400  0.5069687  0.7778229

 Al 
  0.7395735  0.7517264  0.5114858

