32 
charge = 0 
 Al 
  0.9893248  0.0030407  0.0102606

 Al 
  0.0103794  0.2720930  0.2609438

 Al 
  0.2425610  0.9983479  0.2486585

 Al 
  0.2583053  0.2437850  0.0127518

 Al 
  0.4937020  0.9914942  0.9847483

 Al 
  0.4960621  0.2528761  0.2433184

 Al 
  0.7528934  0.0038946  0.2664361

 Al 
  0.7529404  0.2482340  0.0130612

 Al 
  0.0112136  0.5061086  0.9965286

 Al 
  0.0111108  0.7567002  0.2312831

 Al 
  0.2388310  0.4982736  0.2616801

 Al 
  0.2646156  0.7534528  0.9989060

 Al 
  0.0037733  0.9941562  0.4880934

 Al 
  0.0068982  0.2379474  0.7626207

 Al 
  0.2466239  0.9914385  0.7528068

 Al 
  0.2517598  0.2341951  0.5028959

 Al 
  0.9968987  0.5049218  0.4896131

 Al 
  0.0053945  0.7729555  0.7577001

 Al 
  0.2465633  0.4908804  0.7323189

 Al 
  0.2326617  0.7647505  0.4895401

 Al 
  0.4938357  0.4837112  0.9898322

 Al 
  0.4850144  0.7535283  0.2427516

 Al 
  0.7382803  0.4984902  0.2370192

 Al 
  0.7443072  0.7614759  0.0058203

 Al 
  0.5041211  0.9975014  0.4889684

 Al 
  0.5082607  0.2282981  0.7376343

 Al 
  0.7534441  0.9916935  0.7638471

 Al 
  0.7581840  0.2644089  0.5005643

 Al 
  0.5004839  0.4946636  0.4886874

 Al 
  0.4942651  0.7477637  0.7513452

 Al 
  0.7677145  0.5070739  0.7774306

 Al 
  0.7395723  0.7518415  0.5119338

