32 
charge = 0 
 Al 
  0.9899436  0.0050827  0.0078796

 Al 
  0.0125773  0.2711834  0.2617432

 Al 
  0.2435845  0.9997017  0.2457960

 Al 
  0.2569724  0.2447342  0.0110378

 Al 
  0.4933927  0.9922590  0.9819229

 Al 
  0.4948777  0.2535221  0.2439496

 Al 
  0.7524219  0.0035976  0.2675969

 Al 
  0.7515717  0.2476561  0.0146119

 Al 
  0.0117519  0.5044911  0.9988788

 Al 
  0.0113472  0.7564291  0.2309056

 Al 
  0.2388916  0.4996956  0.2620155

 Al 
  0.2634907  0.7513489  0.9988850

 Al 
  0.0047881  0.9925103  0.4870328

 Al 
  0.0042226  0.2367742  0.7626269

 Al 
  0.2443827  0.9926217  0.7522511

 Al 
  0.2522660  0.2339909  0.5039689

 Al 
  0.9963418  0.5042387  0.4888508

 Al 
  0.0066544  0.7713492  0.7598386

 Al 
  0.2485521  0.4936068  0.7331555

 Al 
  0.2329501  0.7627023  0.4866937

 Al 
  0.4944619  0.4863410  0.9902802

 Al 
  0.4837805  0.7532338  0.2402789

 Al 
  0.7392097  0.4990632  0.2384387

 Al 
  0.7437181  0.7613744  0.0079563

 Al 
  0.5053871  0.9986176  0.4867012

 Al 
  0.5083523  0.2268056  0.7386689

 Al 
  0.7532548  0.9951673  0.7675660

 Al 
  0.7582929  0.2626813  0.5022029

 Al 
  0.5010581  0.4960101  0.4873422

 Al 
  0.4949260  0.7452762  0.7520321

 Al 
  0.7669249  0.5065999  0.7788637

 Al 
  0.7396540  0.7513329  0.5100342

