32 
charge = 0 
 Al 
  0.9895884  0.9972811  0.0179187

 Al 
  0.0003267  0.2704012  0.2554564

 Al 
  0.2405995  0.9951599  0.2572855

 Al 
  0.2598733  0.2409881  0.0154633

 Al 
  0.4968306  0.9914101  0.9978256

 Al 
  0.5008811  0.2485793  0.2432256

 Al 
  0.7537313  0.0042535  0.2602891

 Al 
  0.7580095  0.2488837  0.0058289

 Al 
  0.0105663  0.5109376  0.9894943

 Al 
  0.0070368  0.7559688  0.2352718

 Al 
  0.2424199  0.4951648  0.2584464

 Al 
  0.2646651  0.7584550  0.9984196

 Al 
  0.9971982  0.0021967  0.4935436

 Al 
  0.0150252  0.2428655  0.7617903

 Al 
  0.2554713  0.9895265  0.7549490

 Al 
  0.2500916  0.2361740  0.4984741

 Al 
  0.9976944  0.5095824  0.4950312

 Al 
  0.0005866  0.7744332  0.7501398

 Al 
  0.2408730  0.4826345  0.7315158

 Al 
  0.2353695  0.7683778  0.5008564

 Al 
  0.4911811  0.4768774  0.9878261

 Al 
  0.4918358  0.7538315  0.2530147

 Al 
  0.7368150  0.4992104  0.2336629

 Al 
  0.7467093  0.7604475  0.0000371

 Al 
  0.4988243  0.9930239  0.4976734

 Al 
  0.5075132  0.2364227  0.7360081

 Al 
  0.7534206  0.9826964  0.7485149

 Al 
  0.7573932  0.2683493  0.4958839

 Al 
  0.4979568  0.4912022  0.4947923

 Al 
  0.4922343  0.7545914  0.7468937

 Al 
  0.7682714  0.5075182  0.7684620

 Al 
  0.7410054  0.7525519  0.5160079

