32 
charge = 0 
 Al 
  0.9889498  0.0003515  0.0136602

 Al 
  0.0066754  0.2722972  0.2592075

 Al 
  0.2414175  0.9967353  0.2524986

 Al 
  0.2596035  0.2425994  0.0144894

 Al 
  0.4945188  0.9909250  0.9895364

 Al 
  0.4979011  0.2515470  0.2428382

 Al 
  0.7534330  0.0042040  0.2642617

 Al 
  0.7549589  0.2487971  0.0105156

 Al 
  0.0106814  0.5082236  0.9933592

 Al 
  0.0100676  0.7567930  0.2323375

 Al 
  0.2395946  0.4966004  0.2607581

 Al 
  0.2653891  0.7560195  0.9987439

 Al 
  0.0016719  0.9970150  0.4899819

 Al 
  0.0105391  0.2399250  0.7624363

 Al 
  0.2500990  0.9901540  0.7536409

 Al 
  0.2510631  0.2347767  0.5012054

 Al 
  0.9974618  0.5064106  0.4913668

 Al 
  0.0034132  0.7743577  0.7545889

 Al 
  0.2439050  0.4871640  0.7315504

 Al 
  0.2330763  0.7669732  0.4939434

 Al 
  0.4928172  0.4803747  0.9891218

 Al 
  0.4873707  0.7538067  0.2466895

 Al 
  0.7373286  0.4982130  0.2353299

 Al 
  0.7452539  0.7613522  0.0031026

 Al 
  0.5020754  0.9957341  0.4923939

 Al 
  0.5079996  0.2311371  0.7365638

 Al 
  0.7536261  0.9872135  0.7579303

 Al 
  0.7579427  0.2664571  0.4984023

 Al 
  0.4995433  0.4929632  0.4909089

 Al 
  0.4933741  0.7509950  0.7498725

 Al 
  0.7684273  0.5075120  0.7745669

 Al 
  0.7398223  0.7523736  0.5141998

