32 
charge = 0 
 Al 
  0.9893186  0.9978603  0.0170846

 Al 
  0.0018106  0.2710188  0.2564056

 Al 
  0.2406886  0.9954371  0.2563202

 Al 
  0.2599908  0.2413544  0.0153978

 Al 
  0.4961858  0.9911675  0.9958690

 Al 
  0.5001881  0.2493490  0.2430226

 Al 
  0.7537300  0.0042919  0.2612321

 Al 
  0.7573264  0.2489444  0.0069873

 Al 
  0.0105218  0.5103658  0.9902554

 Al 
  0.0078573  0.7562670  0.2344587

 Al 
  0.2416341  0.4953740  0.2590590

 Al 
  0.2650067  0.7580640  0.9984716

 Al 
  0.9983231  0.0009504  0.4926674

 Al 
  0.0141379  0.2422491  0.7619771

 Al 
  0.2542721  0.9895117  0.7546495

 Al 
  0.2503069  0.2358113  0.4991003

 Al 
  0.9977031  0.5087892  0.4941327

 Al 
  0.0011757  0.7746126  0.7511101

 Al 
  0.2414311  0.4835157  0.7314081

 Al 
  0.2347074  0.7682664  0.4992835

 Al 
  0.4915487  0.4774863  0.9881429

 Al 
  0.4907579  0.7538699  0.2515729

 Al 
  0.7368410  0.4988392  0.2339525

 Al 
  0.7463925  0.7607309  0.0006262

 Al 
  0.4995570  0.9936154  0.4964779

 Al 
  0.5076184  0.2351604  0.7360254

 Al 
  0.7535345  0.9834328  0.7506485

 Al 
  0.7575368  0.2680486  0.4963653

 Al 
  0.4983268  0.4915054  0.4938666

 Al 
  0.4924632  0.7539342  0.7476140

 Al 
  0.7684459  0.5075863  0.7700188

 Al 
  0.7406589  0.7525890  0.5157962

