32 
charge = 0 
 Al 
  0.9914583  0.9955708  0.0203827

 Al 
  0.9941958  0.2671155  0.2511089

 Al 
  0.2407443  0.9943332  0.2605403

 Al 
  0.2583907  0.2393594  0.0149844

 Al 
  0.5001671  0.9930536  0.0061395

 Al 
  0.5038067  0.2449483  0.2446896

 Al 
  0.7532820  0.0037746  0.2563301

 Al 
  0.7606913  0.2482439  0.0004183

 Al 
  0.0110502  0.5130649  0.9870935

 Al 
  0.0030184  0.7540703  0.2395451

 Al 
  0.2462873  0.4949285  0.2554589

 Al 
  0.2624301  0.7591419  0.9985199

 Al 
  0.9921563  0.0076098  0.4975397

 Al 
  0.0177788  0.2448777  0.7607284

 Al 
  0.2600936  0.9906292  0.7562287

 Al 
  0.2491770  0.2379288  0.4959222

 Al 
  0.9973702  0.5130847  0.4988614

 Al 
  0.9986560  0.7726919  0.7464086

 Al 
  0.2394968  0.4800245  0.7325652

 Al 
  0.2386553  0.7676773  0.5072558

 Al 
  0.4898062  0.4755148  0.9864425

 Al 
  0.4964767  0.7533946  0.2588213

 Al 
  0.7371888  0.5014876  0.2329179

 Al 
  0.7478392  0.7588288  0.9980880

 Al 
  0.4959581  0.9909274  0.5024962

 Al 
  0.5071828  0.2417665  0.7365316

 Al 
  0.7524714  0.9816024  0.7400896

 Al 
  0.7566717  0.2688976  0.4944532

 Al 
  0.4964036  0.4905487  0.4988132

 Al 
  0.4915499  0.7562188  0.7439706

 Al 
  0.7666997  0.5068301  0.7611480

 Al 
  0.7428494  0.7518526  0.5155054

