32 
charge = 0 
 Al 
  0.9921180  0.9952935  0.0207428

 Al 
  0.9926835  0.2661638  0.2499245

 Al 
  0.2408965  0.9941723  0.2611826

 Al 
  0.2577880  0.2389090  0.0147084

 Al 
  0.5011559  0.9935931  0.0082669

 Al 
  0.5045555  0.2439508  0.2452044

 Al 
  0.7530555  0.0035679  0.2553364

 Al 
  0.7613175  0.2480063  0.9988862

 Al 
  0.0112197  0.5135402  0.9866727

 Al 
  0.0018700  0.7534379  0.2408544

 Al 
  0.2473826  0.4950040  0.2546050

 Al 
  0.2616987  0.7591023  0.9986473

 Al 
  0.9908309  0.0090181  0.4986350

 Al 
  0.0182268  0.2452280  0.7603782

 Al 
  0.2611504  0.9911848  0.7565702

 Al 
  0.2489369  0.2384436  0.4952985

 Al 
  0.9972291  0.5139832  0.4998230

 Al 
  0.9983083  0.7720299  0.7455411

 Al 
  0.2394003  0.4796421  0.7329674

 Al 
  0.2395772  0.7672219  0.5088300

 Al 
  0.4895129  0.4754591  0.9860873

 Al 
  0.4976660  0.7532152  0.2602272

 Al 
  0.7373917  0.5022128  0.2328288

 Al 
  0.7480719  0.7583139  0.9976870

 Al 
  0.4952898  0.9905252  0.5036706

 Al 
  0.5071296  0.2431192  0.7368002

 Al 
  0.7521063  0.9818351  0.7381070

 Al 
  0.7564576  0.2688827  0.4942354

 Al 
  0.4960089  0.4905326  0.4998676

 Al 
  0.4914596  0.7563338  0.7432936

 Al 
  0.7660920  0.5065517  0.7591060

 Al 
  0.7434112  0.7515272  0.5150129

