32 
charge = 0 
 Al 
  0.9911551  0.9957316  0.0201611

 Al 
  0.9949619  0.2675783  0.2516905

 Al 
  0.2406849  0.9944186  0.2601926

 Al 
  0.2586592  0.2395797  0.0151032

 Al 
  0.4996918  0.9927986  0.0050752

 Al 
  0.5034318  0.2454383  0.2444520

 Al 
  0.7533785  0.0038637  0.2568301

 Al 
  0.7603683  0.2483528  0.0011596

 Al 
  0.0109698  0.5128162  0.9873323

 Al 
  0.0035753  0.7543649  0.2389238

 Al 
  0.2457527  0.4949099  0.2558735

 Al 
  0.2627741  0.7591320  0.9984728

 Al 
  0.9928159  0.0069081  0.4970026

 Al 
  0.0175152  0.2446760  0.7608918

 Al 
  0.2595453  0.9903940  0.7560616

 Al 
  0.2492958  0.2376825  0.4962390

 Al 
  0.9974333  0.5126330  0.4983763

 Al 
  0.9988528  0.7729927  0.7468554

 Al 
  0.2395847  0.4802596  0.7323833

 Al 
  0.2382036  0.7678642  0.5064588

 Al 
  0.4899621  0.4755866  0.9866219

 Al 
  0.4958802  0.7534738  0.2581048

 Al 
  0.7371021  0.5011423  0.2329773

 Al 
  0.7477142  0.7590726  0.9982996

 Al 
  0.4963022  0.9911514  0.5018997

 Al 
  0.5072138  0.2410871  0.7364165

 Al 
  0.7526348  0.9815640  0.7411094

 Al 
  0.7567744  0.2688852  0.4945844

 Al 
  0.4966017  0.4905784  0.4982909

 Al 
  0.4916093  0.7561136  0.7443233

 Al 
  0.7669719  0.5069539  0.7621442

 Al 
  0.7425821  0.7519925  0.5156948

