32 
charge = 0 
 Al 
  0.9908730  0.9959074  0.0199136

 Al 
  0.9957329  0.2680313  0.2522647

 Al 
  0.2406366  0.9945089  0.2598262

 Al 
  0.2589067  0.2397951  0.0152047

 Al 
  0.4992302  0.9925561  0.0040134

 Al 
  0.5030593  0.2459222  0.2442292

 Al 
  0.7534639  0.0039453  0.2573313

 Al 
  0.7600391  0.2484555  0.0018848

 Al 
  0.0108930  0.5125613  0.9875885

 Al 
  0.0041198  0.7546458  0.2383261

 Al 
  0.2452304  0.4949025  0.2562782

 Al 
  0.2631033  0.7591010  0.9984357

 Al 
  0.9934719  0.0062101  0.4964754

 Al 
  0.0172256  0.2444594  0.7610452

 Al 
  0.2589847  0.9901874  0.7558957

 Al 
  0.2494134  0.2374437  0.4965583

 Al 
  0.9974902  0.5121813  0.4978900

 Al 
  0.9990632  0.7732711  0.7473095

 Al 
  0.2396985  0.4805232  0.7322150

 Al 
  0.2377605  0.7680239  0.5056581

 Al 
  0.4901243  0.4756868  0.9868002

 Al 
  0.4952861  0.7535469  0.2573833

 Al 
  0.7370266  0.5008131  0.2330454

 Al 
  0.7475843  0.7593040  0.9985211

 Al 
  0.4966524  0.9913903  0.5012982

 Al 
  0.5072484  0.2404077  0.7363150

 Al 
  0.7527858  0.9815776  0.7421440

 Al 
  0.7568734  0.2688555  0.4947292

 Al 
  0.4967984  0.4906242  0.4977711

 Al 
  0.4916774  0.7559787  0.7446822

 Al 
  0.7672244  0.5070665  0.7631206

 Al 
  0.7423234  0.7521175  0.5158470

