32 
charge = 0 
 Al 
  0.9903656  0.9963046  0.0193406

 Al 
  0.9972774  0.2688939  0.2533798

 Al 
  0.2405747  0.9947008  0.2590416

 Al 
  0.2593287  0.2402109  0.0153619

 Al 
  0.4983553  0.9921105  0.0019083

 Al 
  0.5023192  0.2468591  0.2438295

 Al 
  0.7536001  0.0040815  0.2583313

 Al 
  0.7593708  0.2486362  0.0032771

 Al 
  0.0107557  0.5120365  0.9881565

 Al 
  0.0051619  0.7551569  0.2372048

 Al 
  0.2442268  0.4949322  0.2570529

 Al 
  0.2637060  0.7589736  0.9983949

 Al 
  0.9947602  0.0048339  0.4954507

 Al 
  0.0165771  0.2439805  0.7613262

 Al 
  0.2578375  0.9898594  0.7555715

 Al 
  0.2496448  0.2369895  0.4971994

 Al 
  0.9975855  0.5112878  0.4969197

 Al 
  0.9995235  0.7737587  0.7482352

 Al 
  0.2399993  0.4811296  0.7319217

 Al 
  0.2369054  0.7682578  0.5040505

 Al 
  0.4904646  0.4759740  0.9871529

 Al 
  0.4941080  0.7536706  0.2559279

 Al 
  0.7369103  0.5002030  0.2332100

 Al 
  0.7473095  0.7597334  0.9989877

 Al 
  0.4973665  0.9919002  0.5000891

 Al 
  0.5073251  0.2390550  0.7361542

 Al 
  0.7530494  0.9817583  0.7442466

 Al 
  0.7570615  0.2687528  0.4950634

 Al 
  0.4971907  0.4907591  0.4967489

 Al 
  0.4918370  0.7556222  0.7454161

 Al 
  0.7676613  0.5072595  0.7650054

 Al 
  0.7418395  0.7523204  0.5160413

