32 
charge = 0 
 Al 
  0.9936327  0.9949037  0.0211240

 Al 
  0.9898037  0.2642233  0.2475298

 Al 
  0.2413148  0.9938679  0.2622358

 Al 
  0.2563722  0.2379721  0.0140179

 Al 
  0.5032226  0.9947527  0.0124363

 Al 
  0.5060183  0.2419571  0.2463764

 Al 
  0.7524925  0.0030506  0.2534181

 Al 
  0.7624610  0.2474865  0.9956747

 Al 
  0.0115625  0.5143867  0.9860613

 Al 
  0.9994777  0.7520506  0.2436971

 Al 
  0.2496374  0.4952849  0.2528303

 Al 
  0.2601220  0.7587954  0.9990409

 Al 
  0.9882333  0.0117903  0.5008613

 Al 
  0.0187763  0.2457156  0.7595725

 Al 
  0.2630699  0.9926167  0.7572806

 Al 
  0.2484555  0.2395599  0.4941092

 Al 
  0.9968999  0.5156960  0.5016596

 Al 
  0.9977947  0.7705027  0.7439372

 Al 
  0.2395364  0.4792387  0.7338993

 Al 
  0.2414497  0.7660091  0.5118410

 Al 
  0.4890315  0.4756893  0.9854091

 Al 
  0.4999839  0.7527858  0.2628880

 Al 
  0.7379090  0.5037597  0.2327558

 Al 
  0.7484629  0.7571878  0.9969742

 Al 
  0.4940597  0.9899485  0.5059019

 Al 
  0.5070652  0.2457428  0.7374660

 Al 
  0.7512413  0.9829105  0.7344500

 Al 
  0.7559960  0.2686971  0.4939929

 Al 
  0.4952317  0.4906787  0.5019702

 Al 
  0.4914039  0.7561705  0.7421056

 Al 
  0.7646577  0.5058673  0.7548921

 Al 
  0.7446228  0.7507017  0.5135921

