32 
charge = 0 
 Al 
  0.9924731  0.9951760  0.0208814

 Al 
  0.9919422  0.2656812  0.2493268

 Al 
  0.2409868  0.9940944  0.2614747

 Al 
  0.2574588  0.2386775  0.0145513

 Al 
  0.5016645  0.9938765  0.0093250

 Al 
  0.5049267  0.2434496  0.2454804

 Al 
  0.7529268  0.0034516  0.2548463

 Al 
  0.7616182  0.2478813  0.9980991

 Al 
  0.0113064  0.5137666  0.9864908

 Al 
  0.0012809  0.7531038  0.2415388

 Al 
  0.2479407  0.4950597  0.2541669

 Al 
  0.2613163  0.7590515  0.9987290

 Al 
  0.9901713  0.0097198  0.4991894

 Al 
  0.0184087  0.2453765  0.7601889

 Al 
  0.2616566  0.9915029  0.7567447

 Al 
  0.2488157  0.2387122  0.4949928

 Al 
  0.9971511  0.5144250  0.5002958

 Al 
  0.9981573  0.7716710  0.7451215

 Al 
  0.2393929  0.4794948  0.7331852

 Al 
  0.2400450  0.7669546  0.5096035

 Al 
  0.4893792  0.4754752  0.9859128

 Al 
  0.4982563  0.7531162  0.2609141

 Al 
  0.7375080  0.5025902  0.2327979

 Al 
  0.7481795  0.7580429  0.9974976

 Al 
  0.4949681  0.9903507  0.5042461

 Al 
  0.5071086  0.2437874  0.7369511

 Al 
  0.7519058  0.9820281  0.7371504

 Al 
  0.7563462  0.2688543  0.4941513

 Al 
  0.4958121  0.4905475  0.5003960

 Al 
  0.4914286  0.7563425  0.7429731

 Al 
  0.7657604  0.5063957  0.7580640

 Al 
  0.7437033  0.7513415  0.5147109

