32 
charge = 0 
 Al 
  0.9957972  0.9946661  0.0209668

 Al 
  0.9866269  0.2618756  0.2446290

 Al 
  0.2420041  0.9934805  0.2631429

 Al 
  0.2543451  0.2367915  0.0129907

 Al 
  0.5058104  0.9962242  0.0172442

 Al 
  0.5076989  0.2396317  0.2480372

 Al 
  0.7516682  0.0022177  0.2512586

 Al 
  0.7636119  0.2468195  0.9915116

 Al 
  0.0119103  0.5151960  0.9857074

 Al 
  0.9964507  0.7502252  0.2475410

 Al 
  0.2524442  0.4958170  0.2506052

 Al 
  0.2580875  0.7580664  0.9997649

 Al 
  0.9852903  0.0150042  0.5035530

 Al 
  0.0187850  0.2459358  0.7583882

 Al 
  0.2650240  0.9949210  0.7582088

 Al 
  0.2478776  0.2410920  0.4927825

 Al 
  0.9964556  0.5175127  0.5036706

 Al 
  0.9974679  0.7683605  0.7422578

 Al 
  0.2403148  0.4794144  0.7352396

 Al 
  0.2437033  0.7640302  0.5151824

 Al 
  0.4886701  0.4765729  0.9846864

 Al 
  0.5026174  0.7521521  0.2658012

 Al 
  0.7387233  0.5057138  0.2328400

 Al 
  0.7488008  0.7556866  0.9962019

 Al 
  0.4927627  0.9897282  0.5083436

 Al 
  0.5070492  0.2487253  0.7384795

 Al 
  0.7499455  0.9852780  0.7306717

 Al 
  0.7553735  0.2682342  0.4940436

 Al 
  0.4943097  0.4911663  0.5044837

 Al 
  0.4916081  0.7552436  0.7410586

 Al 
  0.7625291  0.5048005  0.7496201

 Al 
  0.7462378  0.7494171  0.5110873

