32 
charge = 0 
 Al 
  0.9995854  0.9946376  0.0193827

 Al 
  0.9827768  0.2585441  0.2405227

 Al 
  0.2433258  0.9927825  0.2638830

 Al 
  0.2509641  0.2350391  0.0112358

 Al 
  0.5094896  0.9982996  0.0233850

 Al 
  0.5098238  0.2367271  0.2510000

 Al 
  0.7503911  0.0005557  0.2486226

 Al 
  0.7646639  0.2458789  0.9847730

 Al 
  0.0120167  0.5158631  0.9859500

 Al 
  0.9919138  0.7474172  0.2539998

 Al 
  0.2566321  0.4969519  0.2473133

 Al 
  0.2550827  0.7563425  0.0013192

 Al 
  0.9818227  0.0192515  0.5071841

 Al 
  0.0173222  0.2455609  0.7561136

 Al 
  0.2670746  0.9994196  0.7597582

 Al 
  0.2470274  0.2437751  0.4910945

 Al 
  0.9959247  0.5192812  0.5059985

 Al 
  0.9974791  0.7648124  0.7405029

 Al 
  0.2427739  0.4811012  0.7376157

 Al 
  0.2468269  0.7601109  0.5192317

 Al 
  0.4887345  0.4791669  0.9839921

 Al 
  0.5058933  0.7510024  0.2693357

 Al 
  0.7402765  0.5084600  0.2332583

 Al 
  0.7490025  0.7532115  0.9950015

 Al 
  0.4912616  0.9906044  0.5112173

 Al 
  0.5070987  0.2525222  0.7403631

 Al 
  0.7474717  0.9908185  0.7268304

 Al 
  0.7542943  0.2670771  0.4948134

 Al 
  0.4929682  0.4925697  0.5079612

 Al 
  0.4926712  0.7523328  0.7406886

 Al 
  0.7585837  0.5027672  0.7418024

 Al 
  0.7488293  0.7471152  0.5058500

