32 
charge = 0 
 Al 
  0.9986152  0.9946216  0.0199210

 Al 
  0.9835973  0.2593263  0.2414769

 Al 
  0.2429781  0.9929657  0.2637580

 Al 
  0.2518007  0.2354525  0.0116727

 Al 
  0.5086468  0.9978268  0.0220558

 Al 
  0.5093646  0.2373397  0.2502277

 Al 
  0.7506819  0.0010000  0.2491745

 Al 
  0.7644943  0.2460930  0.9864598

 Al 
  0.0120588  0.5157653  0.9858052

 Al 
  0.9929942  0.7480954  0.2523675

 Al 
  0.2556284  0.4966400  0.2480942

 Al 
  0.2557868  0.7568252  0.0008948

 Al 
  0.9825231  0.0182949  0.5063759

 Al 
  0.0178444  0.2457230  0.7567299

 Al 
  0.2666786  0.9982241  0.7593646

 Al 
  0.2472340  0.2430820  0.4914682

 Al 
  0.9960188  0.5189879  0.5055245

 Al 
  0.9974333  0.7656948  0.7408272

 Al 
  0.2420363  0.4805319  0.7370019

 Al 
  0.2461079  0.7611641  0.5183741

 Al 
  0.4886392  0.4783934  0.9841035

 Al 
  0.5051940  0.7513032  0.2685808

 Al 
  0.7398631  0.5078387  0.2331295

 Al 
  0.7489877  0.7538377  0.9953171

 Al 
  0.4915747  0.9902468  0.5106220

 Al 
  0.5070850  0.2516930  0.7398681

 Al 
  0.7481338  0.9892728  0.7275321

 Al 
  0.7545753  0.2674113  0.4945547

 Al 
  0.4932899  0.4921489  0.5071667

 Al 
  0.4923135  0.7532028  0.7406193

 Al 
  0.7596233  0.5033006  0.7436612

 Al 
  0.7481944  0.7476957  0.5072682

