32 
charge = 0 
 Al 
  0.0005656  0.9946612  0.0187553

 Al 
  0.9820442  0.2577917  0.2396144

 Al 
  0.2436810  0.9925932  0.2639795

 Al 
  0.2501386  0.2346443  0.0108039

 Al 
  0.5102718  0.9987340  0.0245718

 Al 
  0.5102346  0.2361962  0.2517957

 Al 
  0.7501312  0.0000953  0.2481424

 Al 
  0.7647715  0.2456834  0.9830825

 Al 
  0.0119202  0.5159188  0.9861467

 Al 
  0.9908755  0.7467563  0.2556371

 Al 
  0.2576073  0.4972836  0.2465621

 Al 
  0.2544144  0.7558326  0.0017635

 Al 
  0.9812410  0.0201401  0.5079179

 Al 
  0.0167021  0.2453666  0.7554614

 Al 
  0.2673989  0.0006534  0.7601567

 Al 
  0.2468195  0.2444867  0.4907505

 Al 
  0.9958641  0.5194656  0.5064007

 Al 
  0.9975397  0.7639411  0.7402579

 Al 
  0.2435845  0.4817608  0.7382444

 Al 
  0.2475088  0.7590107  0.5199903

 Al 
  0.4888867  0.4800208  0.9839290

 Al 
  0.5065108  0.7506906  0.2700114

 Al 
  0.7407059  0.5090280  0.2334006

 Al 
  0.7489976  0.7525766  0.9946649

 Al 
  0.4909856  0.9910499  0.5117346

 Al 
  0.5071061  0.2532734  0.7408730

 Al 
  0.7467799  0.9924509  0.7262970

 Al 
  0.7540060  0.2667108  0.4951067

 Al 
  0.4926514  0.4930387  0.5087001

 Al 
  0.4930944  0.7513786  0.7408656

 Al 
  0.7575108  0.5022251  0.7400079

 Al 
  0.7494505  0.7465435  0.5043760

