32 
charge = 0 
 Al 
  0.0015544  0.9946810  0.0180362

 Al 
  0.9813945  0.2570652  0.2387518

 Al 
  0.2440399  0.9923977  0.2640562

 Al 
  0.2493268  0.2342755  0.0103794

 Al 
  0.5109945  0.9991300  0.0256126

 Al 
  0.5105997  0.2357495  0.2526199

 Al 
  0.7499097  0.9996201  0.2477390

 Al 
  0.7648186  0.2455039  0.9813821

 Al 
  0.0117630  0.5159287  0.9863980

 Al 
  0.9898829  0.7461141  0.2572793

 Al 
  0.2585565  0.4976350  0.2458393

 Al 
  0.2537795  0.7552980  0.0022276

 Al 
  0.9807794  0.0209655  0.5085763

 Al 
  0.0159868  0.2451438  0.7547683

 Al 
  0.2676551  0.0019207  0.7605576

 Al 
  0.2466078  0.2452168  0.4904336

 Al 
  0.9958430  0.5195349  0.5067348

 Al 
  0.9976103  0.7630823  0.7400896

 Al 
  0.2444607  0.4825083  0.7388892

 Al 
  0.2481573  0.7578610  0.5206537

 Al 
  0.4890983  0.4809564  0.9839129

 Al 
  0.5070454  0.7503688  0.2706128

 Al 
  0.7411527  0.5095379  0.2335553

 Al 
  0.7489753  0.7519343  0.9943010

 Al 
  0.4907455  0.9915809  0.5121751

 Al 
  0.5071073  0.2539478  0.7413989

 Al 
  0.7460584  0.9941649  0.7259269

 Al 
  0.7537090  0.2663111  0.4954297

 Al 
  0.4923395  0.4935585  0.5093832

 Al 
  0.4935882  0.7503465  0.7411539

 Al 
  0.7564044  0.5016757  0.7382741

 Al 
  0.7500557  0.7459853  0.5028551

