32 
charge = 0 
 Al 
  0.0107854  0.9934966  0.0065244

 Al 
  0.9787251  0.2512982  0.2324972

 Al 
  0.2473343  0.9900698  0.2646725

 Al 
  0.2426947  0.2334649  0.0071779

 Al 
  0.5144028  0.0008514  0.0276509

 Al 
  0.5117927  0.2365601  0.2621912

 Al 
  0.7510037  0.9941958  0.2475620

 Al 
  0.7620922  0.2451067  0.9649089

 Al 
  0.0064056  0.5132097  0.9915908

 Al 
  0.9841654  0.7416415  0.2722279

 Al 
  0.2663569  0.5015507  0.2404176

 Al 
  0.2494951  0.7492080  0.0073536

 Al 
  0.9829427  0.0247389  0.5103572

 Al 
  0.0050641  0.2434521  0.7456314

 Al 
  0.2670982  0.0147233  0.7640302

 Al 
  0.2439768  0.2537981  0.4884350

 Al 
  0.9983194  0.5129635  0.5068747

 Al 
  0.9977798  0.7555468  0.7423383

 Al 
  0.2549156  0.4937330  0.7469247

 Al 
  0.2532127  0.7445881  0.5226672

 Al 
  0.4947985  0.4941723  0.9870972

 Al 
  0.5077162  0.7467861  0.2727241

 Al 
  0.7464457  0.5099314  0.2356468

 Al 
  0.7483850  0.7452156  0.9888830

 Al 
  0.4899572  0.0006101  0.5131961

 Al 
  0.5057287  0.2567299  0.7473368

 Al 
  0.7375749  0.0133013  0.7301990

 Al 
  0.7499282  0.2604883  0.4988342

 Al 
  0.4897196  0.5011113  0.5120378

 Al 
  0.5022289  0.7379622  0.7494159

 Al 
  0.7445956  0.4970385  0.7245904

 Al 
  0.7543587  0.7424558  0.4880055

