32 
charge = 0 
 Al 
  0.0065727  0.9945089  0.0130303

 Al 
  0.9792436  0.2537696  0.2350465

 Al 
  0.2458418  0.9912863  0.2643235

 Al 
  0.2455138  0.2330206  0.0084303

 Al 
  0.5136256  0.0004950  0.0285493

 Al 
  0.5117507  0.2349327  0.2572855

 Al 
  0.7496510  0.9969754  0.2468467

 Al 
  0.7641305  0.2449285  0.9726462

 Al 
  0.0098906  0.5152183  0.9884956

 Al 
  0.9857816  0.7432763  0.2655079

 Al 
  0.2629523  0.4996423  0.2426526

 Al 
  0.2511126  0.7522895  0.0048092

 Al 
  0.9803698  0.0240496  0.5106158

 Al 
  0.0110626  0.2439211  0.7505272

 Al 
  0.2679966  0.0086543  0.7625575

 Al 
  0.2453765  0.2493094  0.4891788

 Al 
  0.9964841  0.5178840  0.5074452

 Al 
  0.9979048  0.7589847  0.7404126

 Al 
  0.2496708  0.4875291  0.7425313

 Al 
  0.2510247  0.7513291  0.5226536

 Al 
  0.4911836  0.4869400  0.9847087

 Al 
  0.5084439  0.7485768  0.2725818

 Al 
  0.7437181  0.5109537  0.2345230

 Al 
  0.7486882  0.7485323  0.9919150

 Al 
  0.4900314  0.9955052  0.5133719

 Al 
  0.5068400  0.2562200  0.7442985

 Al 
  0.7419410  0.0038117  0.7264430

 Al 
  0.7519974  0.2637122  0.4973281

 Al 
  0.4908433  0.4969915  0.5118138

 Al 
  0.4972291  0.7441872  0.7442688

 Al 
  0.7503614  0.4989629  0.7303958

 Al 
  0.7527672  0.7436030  0.4948072

