32 
charge = 0 
 Al 
  0.0090057  0.9940733  0.0096220

 Al 
  0.9787944  0.2523303  0.2335330

 Al 
  0.2466994  0.9906267  0.2644906

 Al 
  0.2438394  0.2330157  0.0076481

 Al 
  0.5142604  0.0007908  0.0284825

 Al 
  0.5118955  0.2355453  0.2599686

 Al 
  0.7502054  0.9954606  0.2470855

 Al 
  0.7631677  0.2449149  0.9682293

 Al 
  0.0081642  0.5142815  0.9900908

 Al 
  0.9845416  0.7422232  0.2694273

 Al 
  0.2649324  0.5007203  0.2413222

 Al 
  0.2501064  0.7506076  0.0062212

 Al 
  0.9814465  0.0247463  0.5107433

 Al 
  0.0078499  0.2435115  0.7478986

 Al 
  0.2676254  0.0121009  0.7634573

 Al 
  0.2446228  0.2517190  0.4887221

 Al 
  0.9973541  0.5155772  0.5072546

 Al 
  0.9978999  0.7570405  0.7413036

 Al 
  0.2525976  0.4908160  0.7448010

 Al 
  0.2522870  0.7476226  0.5228677

 Al 
  0.4929756  0.4907752  0.9858064

 Al 
  0.5082855  0.7475880  0.2728825

 Al 
  0.7452069  0.5107099  0.2351257

 Al 
  0.7485075  0.7467044  0.9903173

 Al 
  0.4899361  0.9981981  0.5134065

 Al 
  0.5063722  0.2566754  0.7459457

 Al 
  0.7395649  0.0091122  0.7281682

 Al 
  0.7509232  0.2620130  0.4982575

 Al 
  0.4901700  0.4992042  0.5122259

 Al 
  0.4998267  0.7407034  0.7468826

 Al 
  0.7471301  0.4977811  0.7269690

 Al 
  0.7538030  0.7428147  0.4908408

