32 
charge = 0 
 Al 
  0.0129263  0.9922751  0.0015123

 Al 
  0.9790815  0.2499765  0.2313004

 Al 
  0.2481635  0.9892691  0.2650475

 Al 
  0.2414212  0.2350465  0.0067868

 Al 
  0.5140191  0.0006881  0.0252228

 Al 
  0.5112829  0.2388619  0.2653557

 Al 
  0.7526719  0.9923717  0.2486152

 Al 
  0.7600465  0.2458641  0.9608435

 Al 
  0.0033092  0.5110923  0.9940436

 Al 
  0.9849129  0.7412628  0.2754554

 Al 
  0.2680870  0.5026212  0.2394188

 Al 
  0.2489617  0.7471289  0.0089364

 Al 
  0.9860985  0.0236251  0.5090057

 Al 
  0.0009022  0.2440065  0.7422133

 Al 
  0.2659819  0.0180981  0.7644622

 Al 
  0.2430164  0.2570145  0.4881553

 Al 
  0.0001077  0.5079365  0.5059861

 Al 
  0.9973937  0.7534850  0.7442639

 Al 
  0.2580145  0.4982538  0.7506188

 Al 
  0.2544032  0.7403223  0.5217761

 Al 
  0.4981041  0.4994716  0.9897220

 Al 
  0.5061866  0.7456475  0.2717452

 Al 
  0.7482328  0.5077669  0.2364635

 Al 
  0.7482971  0.7430721  0.9866467

 Al 
  0.4901119  0.0043550  0.5125600

 Al 
  0.5041755  0.2564477  0.7494258

 Al 
  0.7346641  0.0188072  0.7340453

 Al 
  0.7482389  0.2580466  0.4991943

 Al 
  0.4892802  0.5039057  0.5108039

 Al 
  0.5061197  0.7344587  0.7536533

 Al 
  0.7412170  0.4963913  0.7218752

 Al 
  0.7545703  0.7424286  0.4848473

