32 
charge = 0 
 Al 
  0.0111938  0.9933196  0.0057114

 Al 
  0.9787473  0.2510581  0.2322657

 Al 
  0.2474840  0.9899312  0.2647270

 Al 
  0.2424422  0.2336506  0.0070850

 Al 
  0.5143867  0.0008440  0.0273390

 Al 
  0.5117358  0.2368831  0.2627419

 Al 
  0.7512487  0.9938803  0.2477142

 Al 
  0.7617841  0.2451896  0.9641392

 Al 
  0.0059217  0.5128979  0.9919880

 Al 
  0.9841753  0.7415375  0.2728578

 Al 
  0.2666836  0.5017474  0.2402183

 Al 
  0.2493726  0.7488565  0.0076308

 Al 
  0.9833981  0.0246473  0.5101938

 Al 
  0.0043575  0.2434867  0.7450547

 Al 
  0.2669373  0.0153421  0.7641429

 Al 
  0.2438134  0.2543302  0.4883743

 Al 
  0.9985929  0.5122098  0.5067509

 Al 
  0.9977328  0.7551854  0.7426328

 Al 
  0.2554725  0.4944867  0.7474989

 Al 
  0.2534293  0.7438407  0.5225657

 Al 
  0.4953047  0.4950510  0.9874796

 Al 
  0.5075145  0.7465868  0.2726239

 Al 
  0.7467539  0.5096517  0.2357804

 Al 
  0.7483602  0.7448456  0.9885117

 Al 
  0.4899733  0.0012326  0.5131144

 Al 
  0.5055208  0.2567076  0.7476882

 Al 
  0.7370761  0.0143050  0.7307831

 Al 
  0.7496621  0.2600898  0.4989419

 Al 
  0.4896243  0.5015927  0.5119128

 Al 
  0.5028612  0.7373113  0.7500965

 Al 
  0.7439867  0.4968900  0.7240607

 Al 
  0.7544503  0.7424088  0.4873744

