32 
charge = 0 
 Al 
  0.0136751  0.9915499  0.9989654

 Al 
  0.9794503  0.2494245  0.2308871

 Al 
  0.2485124  0.9889164  0.2652715

 Al 
  0.2410178  0.2362606  0.0067385

 Al 
  0.5135921  0.0005148  0.0235867

 Al 
  0.5108794  0.2402926  0.2667294

 Al 
  0.7536298  0.9915623  0.2492179

 Al 
  0.7588869  0.2465026  0.9594352

 Al 
  0.0016534  0.5098411  0.9952775

 Al 
  0.9859252  0.7412764  0.2765135

 Al 
  0.2687107  0.5030234  0.2391169

 Al 
  0.2488751  0.7461524  0.0096233

 Al 
  0.9879808  0.0225682  0.5080479

 Al 
  0.9989802  0.2446079  0.7406081

 Al 
  0.2653012  0.0194149  0.7644325

 Al 
  0.2425783  0.2585949  0.4880909

 Al 
  0.0010804  0.5050703  0.5054193

 Al 
  0.9971190  0.7525593  0.7453072

 Al 
  0.2592780  0.5004220  0.7526595

 Al 
  0.2548822  0.7384783  0.5210992

 Al 
  0.4999480  0.5020247  0.9913061

 Al 
  0.5051829  0.7451512  0.2709259

 Al 
  0.7490384  0.5062905  0.2368856

 Al 
  0.7483293  0.7421056  0.9855836

 Al 
  0.4902332  0.0061445  0.5121318

 Al 
  0.5031063  0.2562435  0.7504232

 Al 
  0.7333449  0.0209321  0.7361665

 Al 
  0.7473405  0.2568177  0.4990867

 Al 
  0.4891961  0.5051445  0.5097755

 Al 
  0.5080627  0.7331877  0.7558017

 Al 
  0.7398507  0.4962886  0.7209717

 Al 
  0.7543624  0.7426353  0.4839154

