32 
charge = 0 
 Al 
  0.0132023  0.9920400  0.0006621

 Al 
  0.9791916  0.2497834  0.2311482

 Al 
  0.2482847  0.9891466  0.2651193

 Al 
  0.2412690  0.2354203  0.0067608

 Al 
  0.5138916  0.0006361  0.0247030

 Al 
  0.5111591  0.2393223  0.2658334

 Al 
  0.7529862  0.9920920  0.2488132

 Al 
  0.7596678  0.2460559  0.9603213

 Al 
  0.0027610  0.5106876  0.9944582

 Al 
  0.9852037  0.7412541  0.2758514

 Al 
  0.2683147  0.5027672  0.2393025

 Al 
  0.2489208  0.7467960  0.0091741

 Al 
  0.9867073  0.0233095  0.5087038

 Al 
  0.0002450  0.2441822  0.7416663

 Al 
  0.2657628  0.0185684  0.7644721

 Al 
  0.2428655  0.2575467  0.4881281

 Al 
  0.0004294  0.5069997  0.5058054

 Al 
  0.9973083  0.7531682  0.7446092

 Al 
  0.2584600  0.4989901  0.7512871

 Al 
  0.2545728  0.7396800  0.5215658

 Al 
  0.4987080  0.5003366  0.9902319

 Al 
  0.5058660  0.7454742  0.2714952

 Al 
  0.7485087  0.5073004  0.2366021

 Al 
  0.7483008  0.7427392  0.9862841

 Al 
  0.4901502  0.0049639  0.5124239

 Al 
  0.5038414  0.2563809  0.7497636

 Al 
  0.7342112  0.0195721  0.7347446

 Al 
  0.7479419  0.2576358  0.4991807

 Al 
  0.4892406  0.5043352  0.5104896

 Al 
  0.5067732  0.7339934  0.7543735

 Al 
  0.7407344  0.4963405  0.7215385

 Al 
  0.7545245  0.7424818  0.4844847

