32 
charge = 0 
 Al 
  0.0141800  0.9907851  0.9964581

 Al 
  0.9799304  0.2489431  0.2306024

 Al 
  0.2488218  0.9886119  0.2655104

 Al 
  0.2407740  0.2377407  0.0067794

 Al 
  0.5130390  0.0002995  0.0217551

 Al 
  0.5103844  0.2418568  0.2678964

 Al 
  0.7546112  0.9908507  0.2498206

 Al 
  0.7576716  0.2473380  0.9585367

 Al 
  0.9999864  0.5084897  0.9964680

 Al 
  0.9873472  0.7413928  0.2771744

 Al 
  0.2691476  0.5033105  0.2389597

 Al 
  0.2488998  0.7452478  0.0102210

 Al 
  0.9899955  0.0212044  0.5069576

 Al 
  0.9972340  0.2454198  0.7391268

 Al 
  0.2645525  0.0204396  0.7642208

 Al 
  0.2421885  0.2601171  0.4880773

 Al 
  0.0020568  0.5020766  0.5047795

 Al 
  0.9968021  0.7517041  0.7463442

 Al 
  0.2603064  0.5024504  0.7547980

 Al 
  0.2552671  0.7369016  0.5202935

 Al 
  0.5018675  0.5044045  0.9930387

 Al 
  0.5040716  0.7447329  0.2699074

 Al 
  0.7497686  0.5046074  0.2373274

 Al 
  0.7484345  0.7412442  0.9846146

 Al 
  0.4903767  0.0078041  0.5116479

 Al 
  0.5018378  0.2560653  0.7513687

 Al 
  0.7321704  0.0225137  0.7383186

 Al 
  0.7464346  0.2556123  0.4987785

 Al 
  0.4892134  0.5062150  0.5085095

 Al 
  0.5099228  0.7323288  0.7578672

 Al 
  0.7387580  0.4963207  0.7203851

 Al 
  0.7539478  0.7429694  0.4834526

