32 
charge = 0 
 Al 
  0.0144646  0.9894968  0.9924657

 Al 
  0.9809514  0.2482773  0.2304143

 Al 
  0.2492649  0.9882345  0.2659064

 Al 
  0.2407158  0.2407269  0.0070034

 Al 
  0.5118856  0.9998775  0.0184174

 Al 
  0.5093671  0.2446698  0.2692812

 Al 
  0.7561977  0.9899114  0.2507363

 Al 
  0.7555826  0.2491857  0.9582595

 Al 
  0.9972798  0.5060789  0.9982971

 Al 
  0.9905351  0.7417294  0.2774318

 Al 
  0.2694273  0.5034974  0.2390290

 Al 
  0.2491523  0.7439496  0.0109995

 Al 
  0.9935300  0.0183357  0.5049775

 Al 
  0.9947775  0.2471759  0.7369957

 Al 
  0.2631664  0.0214853  0.7634634

 Al 
  0.2416873  0.2624623  0.4881714

 Al 
  0.0036038  0.4970088  0.5035444

 Al 
  0.9962168  0.7504109  0.7479580

 Al 
  0.2614821  0.5054391  0.7585169

 Al 
  0.2556816  0.7349314  0.5187317

 Al 
  0.5051507  0.5078301  0.9961920

 Al 
  0.5020902  0.7442503  0.2678234

 Al 
  0.7508131  0.5014776  0.2381404

 Al 
  0.7488317  0.7400945  0.9833115

 Al 
  0.4906614  0.0101790  0.5107519

 Al 
  0.4992958  0.2559304  0.7528179

 Al 
  0.7305975  0.0238330  0.7418123

 Al 
  0.7449656  0.2536793  0.4978417

 Al 
  0.4894745  0.5075702  0.5059799

 Al 
  0.5127011  0.7318982  0.7609611

 Al 
  0.7375922  0.4966153  0.7200844

 Al 
  0.7528563  0.7437590  0.4836827

