32 
charge = 0 
 Al 
  0.0143768  0.9902666  0.9948282

 Al 
  0.9803067  0.2486585  0.2304849

 Al 
  0.2490087  0.9884412  0.2656713

 Al 
  0.2406997  0.2388632  0.0068487

 Al 
  0.5126095  0.0001374  0.0204544

 Al 
  0.5100069  0.2429570  0.2685399

 Al 
  0.7552584  0.9904374  0.2502054

 Al 
  0.7568425  0.2480088  0.9582409

 Al 
  0.9988874  0.5075454  0.9972266

 Al 
  0.9885068  0.7415116  0.2773996

 Al 
  0.2693295  0.5034293  0.2389387

 Al 
  0.2489728  0.7446946  0.0105663

 Al 
  0.9913890  0.0201401  0.5061829

 Al 
  0.9961809  0.2460670  0.7382209

 Al 
  0.2640191  0.0209569  0.7639783

 Al 
  0.2419633  0.2610873  0.4880984

 Al 
  0.0026917  0.5000483  0.5043117

 Al 
  0.9965732  0.7511695  0.7470125

 Al 
  0.2608571  0.5037077  0.7562658

 Al 
  0.2554688  0.7360118  0.5196983

 Al 
  0.5031743  0.5058636  0.9942639

 Al 
  0.5032907  0.7445040  0.2691278

 Al 
  0.7502116  0.5033959  0.2376392

 Al 
  0.7485558  0.7407393  0.9840416

 Al 
  0.4904844  0.0088176  0.5113014

 Al 
  0.5008836  0.2559799  0.7519677

 Al 
  0.7314811  0.0232427  0.7397381

 Al 
  0.7458381  0.2548277  0.4984642

 Al 
  0.4892827  0.5068239  0.5075541

 Al 
  0.5110898  0.7320021  0.7591666

 Al 
  0.7381912  0.4964061  0.7201661

 Al 
  0.7535679  0.7432540  0.4833993

