32 
charge = 0 
 Al 
  0.0143087  0.9887617  0.9902195

 Al 
  0.9816841  0.2479357  0.2304651

 Al 
  0.2494988  0.9880909  0.2661230

 Al 
  0.2408742  0.2427776  0.0072039

 Al 
  0.5110774  0.9996077  0.0163123

 Al 
  0.5086407  0.2464346  0.2697317

 Al 
  0.7570776  0.9894993  0.2511930

 Al 
  0.7543104  0.2505594  0.9588337

 Al 
  0.9957453  0.5045703  0.9992785

 Al 
  0.9928704  0.7419657  0.2771286

 Al 
  0.2693109  0.5034293  0.2392604

 Al 
  0.2494035  0.7433134  0.0113311

 Al 
  0.9957081  0.0163111  0.5037560

 Al 
  0.9935894  0.2484196  0.7359388

 Al 
  0.2622543  0.0217254  0.7627754

 Al 
  0.2414942  0.2637246  0.4883013

 Al 
  0.0044428  0.4940288  0.5026942

 Al 
  0.9958554  0.7496869  0.7488095

 Al 
  0.2618695  0.5069799  0.7608064

 Al 
  0.2557856  0.7341555  0.5176934

 Al 
  0.5071222  0.5095008  0.9982105

 Al 
  0.5008799  0.7441117  0.2663804

 Al 
  0.7513452  0.4994765  0.2386973

 Al 
  0.7492389  0.7395970  0.9827620

 Al 
  0.4908581  0.0113336  0.5101715

 Al 
  0.4975323  0.2559898  0.7536137

 Al 
  0.7299032  0.0238280  0.7437924

 Al 
  0.7441401  0.2525593  0.4970596

 Al 
  0.4897703  0.5081196  0.5042758

 Al 
  0.5141095  0.7322583  0.7625377

 Al 
  0.7372927  0.4969024  0.7202836

 Al 
  0.7520049  0.7443493  0.4843597

