32 
charge = 0 
 Al 
  0.0140389  0.9910425  0.9972860

 Al 
  0.9797584  0.2490966  0.2306829

 Al 
  0.2487228  0.9887072  0.2654299

 Al 
  0.2408371  0.2372197  0.0067571

 Al 
  0.5132357  0.0003750  0.0223838

 Al 
  0.5105601  0.2413222  0.2675338

 Al 
  0.7542832  0.9910759  0.2496225

 Al 
  0.7580813  0.2470373  0.9587768

 Al 
  0.0005408  0.5089501  0.9960782

 Al 
  0.9868286  0.7413445  0.2769974

 Al 
  0.2690238  0.5032288  0.2389956

 Al 
  0.2488800  0.7455398  0.0100329

 Al 
  0.9893124  0.0216908  0.5073326

 Al 
  0.9977947  0.2451277  0.7396057

 Al 
  0.2648099  0.0201314  0.7643112

 Al 
  0.2423123  0.2596171  0.4880761

 Al 
  0.0017326  0.5030840  0.5050010

 Al 
  0.9969110  0.7519813  0.7460014

 Al 
  0.2599908  0.5017920  0.7540753

 Al 
  0.2551495  0.7373954  0.5205745

 Al 
  0.5012215  0.5036347  0.9924459

 Al 
  0.5044503  0.7448629  0.2702688

 Al 
  0.7495347  0.5051891  0.2371776

 Al 
  0.7483899  0.7415177  0.9849253

 Al 
  0.4903272  0.0072682  0.5118150

 Al 
  0.5022821  0.2561185  0.7510594

 Al 
  0.7325442  0.0220509  0.7376021

 Al 
  0.7467365  0.2560108  0.4989035

 Al 
  0.4891961  0.5058784  0.5089550

 Al 
  0.5093151  0.7325665  0.7571927

 Al 
  0.7390909  0.4962960  0.7205460

 Al 
  0.7541075  0.7428457  0.4835540

