32 
charge = 0 
 Al 
  0.0143867  0.9890018  0.9909547

 Al 
  0.9814304  0.2480459  0.2304354

 Al 
  0.2494233  0.9881305  0.2660537

 Al 
  0.2408061  0.2420746  0.0071333

 Al 
  0.5113559  0.9996980  0.0170202

 Al 
  0.5088931  0.2458430  0.2696154

 Al 
  0.7567917  0.9896243  0.2510507

 Al 
  0.7547362  0.2500804  0.9585813

 Al 
  0.9962477  0.5050765  0.9989617

 Al 
  0.9920610  0.7418865  0.2772647

 Al 
  0.2693740  0.5034664  0.2391676

 Al 
  0.2493132  0.7435127  0.0112321

 Al 
  0.9949804  0.0170091  0.5041632

 Al 
  0.9939619  0.2479914  0.7362717

 Al 
  0.2625650  0.0216759  0.7630229

 Al 
  0.2415487  0.2633174  0.4882518

 Al 
  0.0041718  0.4950114  0.5029875

 Al 
  0.9959754  0.7499257  0.7485372

 Al 
  0.2617655  0.5064873  0.7600403

 Al 
  0.2557633  0.7343807  0.5180461

 Al 
  0.5064675  0.5089773  0.9975286

 Al 
  0.5012821  0.7441439  0.2668754

 Al 
  0.7511757  0.5001497  0.2385043

 Al 
  0.7490879  0.7397456  0.9829229

 Al 
  0.4907901  0.0109722  0.5103683

 Al 
  0.4981387  0.2559564  0.7533538

 Al 
  0.7301136  0.0238949  0.7431439

 Al 
  0.7444099  0.2529293  0.4973368

 Al 
  0.4896602  0.5079575  0.5048562

 Al 
  0.5136639  0.7320863  0.7620378

 Al 
  0.7373595  0.4967997  0.7201871

 Al 
  0.7523019  0.7441439  0.4840936

