32 
charge = 0 
 Al 
  0.0133137  0.9875080  0.9861542

 Al 
  0.9834092  0.2472922  0.2309007

 Al 
  0.2499319  0.9880179  0.2664447

 Al 
  0.2415821  0.2472761  0.0076679

 Al 
  0.5092335  0.9990817  0.0120217

 Al 
  0.5069279  0.2500050  0.2696983

 Al 
  0.7585899  0.9890030  0.2518205

 Al 
  0.7517549  0.2537981  0.9615588

 Al 
  0.9929917  0.5015049  0.0009405

 Al 
  0.9982402  0.7423865  0.2756695

 Al 
  0.2684075  0.5029008  0.2401106

 Al 
  0.2500582  0.7424175  0.0116974

 Al 
  0.0000780  0.0117296  0.5013898

 Al 
  0.9918395  0.2511621  0.7343609

 Al 
  0.2602470  0.0214012  0.7609215

 Al 
  0.2414039  0.2658272  0.4887407

 Al 
  0.0058141  0.4885030  0.5007227

 Al 
  0.9951772  0.7482798  0.7501411

 Al 
  0.2619920  0.5094983  0.7653916

 Al 
  0.2556581  0.7334847  0.5154869

 Al 
  0.5109339  0.5118880  0.0024293

 Al 
  0.4985558  0.7442243  0.2631813

 Al 
  0.7522412  0.4954074  0.2400475

 Al 
  0.7505210  0.7390674  0.9823016

 Al 
  0.4913074  0.0129808  0.5089327

 Al 
  0.4935746  0.2564737  0.7550542

 Al 
  0.7291050  0.0221722  0.7473912

 Al 
  0.7427009  0.2503750  0.4951339

 Al 
  0.4906663  0.5086642  0.5006534

 Al 
  0.5161824  0.7343201  0.7649250

 Al 
  0.7375489  0.4976177  0.7214197

 Al 
  0.7500124  0.7457316  0.4866913

