32 
charge = 0 
 Al 
  0.0139213  0.9880897  0.9881095

 Al 
  0.9825046  0.2476140  0.2306284

 Al 
  0.2497178  0.9880154  0.2663074

 Al 
  0.2411675  0.2449755  0.0074316

 Al 
  0.5101913  0.9993379  0.0141689

 Al 
  0.5078288  0.2482241  0.2698753

 Al 
  0.7578796  0.9891986  0.2515606

 Al 
  0.7530345  0.2521088  0.9599451

 Al 
  0.9943072  0.5030382  0.0001621

 Al 
  0.9954581  0.7421935  0.2765284

 Al 
  0.2689718  0.5032276  0.2396255

 Al 
  0.2497104  0.7427999  0.0115638

 Al 
  0.9978999  0.0140958  0.5025494

 Al 
  0.9926130  0.2497612  0.7350577

 Al 
  0.2612804  0.0216920  0.7619227

 Al 
  0.2413952  0.2648532  0.4884894

 Al 
  0.0051879  0.4911725  0.5017549

 Al 
  0.9955039  0.7489827  0.7495446

 Al 
  0.2620341  0.5083313  0.7631083

 Al 
  0.2557769  0.7336778  0.5166044

 Al 
  0.5090602  0.5108571  0.0002995

 Al 
  0.4996918  0.7441005  0.2648235

 Al 
  0.7518180  0.4974370  0.2393273

 Al 
  0.7497983  0.7392518  0.9824179

 Al 
  0.4910735  0.0122692  0.5095639

 Al 
  0.4956141  0.2561692  0.7543587

 Al 
  0.7294057  0.0232575  0.7456562

 Al 
  0.7433790  0.2514591  0.4961450

 Al 
  0.4901676  0.5084798  0.5024850

 Al 
  0.5152789  0.7330739  0.7638669

 Al 
  0.7372840  0.4972439  0.7207378

 Al 
  0.7510445  0.7450101  0.4853819

