32 
charge = 0 
 Al 
  0.0125068  0.9870440  0.9843770

 Al 
  0.9843943  0.2469494  0.2312744

 Al 
  0.2501535  0.9881070  0.2665140

 Al 
  0.2421068  0.2496250  0.0078981

 Al 
  0.5082088  0.9988515  0.0099092

 Al 
  0.5059440  0.2517413  0.2691958

 Al 
  0.7591963  0.9889065  0.2519628

 Al 
  0.7504765  0.2555777  0.9636231

 Al 
  0.9918222  0.4999913  0.0016026

 Al 
  0.0011435  0.7425264  0.2745916

 Al 
  0.2676192  0.5024615  0.2407034

 Al 
  0.2504294  0.7421761  0.0117370

 Al 
  0.0022152  0.0092520  0.5003007

 Al 
  0.9912579  0.2525791  0.7338572

 Al 
  0.2591604  0.0208764  0.7597891

 Al 
  0.2415326  0.2666217  0.4890575

 Al 
  0.0062992  0.4860836  0.4995990

 Al 
  0.9948926  0.7475645  0.7505779

 Al 
  0.2617593  0.5104883  0.7676167

 Al 
  0.2554378  0.7335577  0.5143669

 Al 
  0.5127085  0.5125922  0.0045641

 Al 
  0.4975014  0.7444891  0.2614821

 Al 
  0.7526224  0.4934372  0.2408730

 Al 
  0.7514121  0.7390463  0.9824378

 Al 
  0.4915561  0.0134672  0.5082818

 Al 
  0.4914559  0.2569019  0.7556953

 Al 
  0.7290035  0.0206401  0.7489840

 Al 
  0.7421217  0.2493045  0.4940659

 Al 
  0.4912628  0.5086914  0.4988367

 Al 
  0.5167925  0.7359549  0.7656972

 Al 
  0.7380612  0.4980026  0.7222996

 Al 
  0.7489431  0.7464977  0.4882246

