32 
charge = 0 
 Al 
  0.0127964  0.9871838  0.9849475

 Al 
  0.9840565  0.2470670  0.2311383

 Al 
  0.2500780  0.9880674  0.2665004

 Al 
  0.2419212  0.2488392  0.0078239

 Al 
  0.5085577  0.9989246  0.0106059

 Al 
  0.5062806  0.2511707  0.2694000

 Al 
  0.7590057  0.9889288  0.2519294

 Al 
  0.7509022  0.2549775  0.9628892

 Al 
  0.9921947  0.5004913  0.0013960

 Al 
  0.0001671  0.7424868  0.2749728

 Al 
  0.2679063  0.5026187  0.2404955

 Al 
  0.2503044  0.7422405  0.0117346

 Al 
  0.0015098  0.0100874  0.5006547

 Al 
  0.9914311  0.2521076  0.7340033

 Al 
  0.2595280  0.0210757  0.7601790

 Al 
  0.2414757  0.2663779  0.4889449

 Al 
  0.0061556  0.4868583  0.4999839

 Al 
  0.9949829  0.7478046  0.7504505

 Al 
  0.2618571  0.5101777  0.7668841

 Al 
  0.2555220  0.7335058  0.5147381

 Al 
  0.5121294  0.5123930  0.0038550

 Al 
  0.4978417  0.7443839  0.2620526

 Al 
  0.7524999  0.4940845  0.2405859

 Al 
  0.7510965  0.7390352  0.9823635

 Al 
  0.4914720  0.0133298  0.5085008

 Al 
  0.4921675  0.2567460  0.7554874

 Al 
  0.7290147  0.0211945  0.7484691

 Al 
  0.7423036  0.2496597  0.4944260

 Al 
  0.4910524  0.5086988  0.4994381

 Al 
  0.5166229  0.7353708  0.7654720

 Al 
  0.7378645  0.4978739  0.7219865

 Al 
  0.7493020  0.7462378  0.4876924

