32 
charge = 0 
 Al 
  0.0135389  0.9876900  0.9867865

 Al 
  0.9830986  0.2474011  0.2307980

 Al 
  0.2498614  0.9880080  0.2664051

 Al 
  0.2414311  0.2465002  0.0075900

 Al 
  0.5095602  0.9991646  0.0127358

 Al 
  0.5072373  0.2494146  0.2697936

 Al 
  0.7583634  0.9890562  0.2517462

 Al 
  0.7521818  0.2532214  0.9609685

 Al 
  0.9934149  0.5020148  0.0006930

 Al 
  0.9972959  0.7423271  0.2759814

 Al 
  0.2686216  0.5030221  0.2399374

 Al 
  0.2499381  0.7425288  0.0116640

 Al 
  0.9993552  0.0125328  0.5017697

 Al 
  0.9920759  0.2506906  0.7345713

 Al 
  0.2605985  0.0215249  0.7612705

 Al 
  0.2413878  0.2655215  0.4886491

 Al 
  0.0056198  0.4893681  0.5010779

 Al 
  0.9952824  0.7485149  0.7499592

 Al 
  0.2620279  0.5091295  0.7646354

 Al 
  0.2557089  0.7335181  0.5158606

 Al 
  0.5103188  0.5115811  0.0017165

 Al 
  0.4989270  0.7441674  0.2637357

 Al 
  0.7521051  0.4960794  0.2397963

 Al 
  0.7502611  0.7391107  0.9823140

 Al 
  0.4912282  0.0127692  0.5091456

 Al 
  0.4942651  0.2563586  0.7548277

 Al 
  0.7291830  0.0225868  0.7468281

 Al 
  0.7429174  0.2507351  0.4954792

 Al 
  0.4904893  0.5086221  0.5012648

 Al 
  0.5159126  0.7338597  0.7646032

 Al 
  0.7374313  0.4974915  0.7211685

 Al 
  0.7503626  0.7454854  0.4862272

