32 
charge = 0 
 Al 
  0.0073808  0.9868410  0.9793141

 Al 
  0.9894077  0.2448060  0.2339389

 Al 
  0.2513923  0.9896614  0.2655747

 Al 
  0.2453096  0.2589241  0.0085082

 Al 
  0.5031768  0.9984332  0.0021732

 Al 
  0.5010383  0.2578697  0.2635983

 Al 
  0.7605069  0.9892839  0.2510693

 Al 
  0.7450436  0.2628397  0.9760111

 Al 
  0.9888632  0.4942664  0.0029763

 Al 
  0.0132828  0.7423630  0.2682268

 Al 
  0.2619945  0.4998131  0.2441265

 Al 
  0.2520643  0.7429372  0.0109636

 Al 
  0.0101988  0.9983837  0.4968479

 Al 
  0.9905364  0.2579080  0.7340169

 Al 
  0.2540914  0.0165239  0.7539998

 Al 
  0.2436389  0.2675697  0.4911985

 Al 
  0.0063462  0.4796582  0.4938827

 Al 
  0.9944446  0.7440919  0.7503886

 Al 
  0.2591122  0.5130068  0.7755086

 Al 
  0.2537214  0.7361641  0.5101220

 Al 
  0.5185189  0.5123348  0.0128249

 Al 
  0.4945201  0.7471932  0.2542919

 Al 
  0.7539206  0.4866442  0.2459099

 Al 
  0.7567299  0.7406688  0.9861195

 Al 
  0.4927491  0.0132073  0.5053228

 Al 
  0.4826283  0.2598832  0.7576642

 Al 
  0.7308079  0.0110514  0.7540963

 Al 
  0.7409435  0.2450089  0.4897394

 Al 
  0.4948777  0.5074576  0.4922479

 Al 
  0.5159349  0.7458059  0.7658408

 Al 
  0.7421514  0.4994344  0.7275704

 Al 
  0.7446649  0.7499616  0.4959259

