32 
charge = 0 
 Al 
  0.0041013  0.9880006  0.9785122

 Al 
  0.9925016  0.2430474  0.2359673

 Al 
  0.2523068  0.9914150  0.2639671

 Al 
  0.2473850  0.2624994  0.0084488

 Al 
  0.5001869  0.9987649  0.9994159

 Al 
  0.4982761  0.2597384  0.2588560

 Al 
  0.7604240  0.9897134  0.2496337

 Al 
  0.7422553  0.2654151  0.9836456

 Al 
  0.9887456  0.4920586  0.0027363

 Al 
  0.0183642  0.7418370  0.2640377

 Al 
  0.2579749  0.4983825  0.2462861

 Al 
  0.2528167  0.7445535  0.0100465

 Al 
  0.0131664  0.9931080  0.4959532

 Al 
  0.9910326  0.2597396  0.7355663

 Al 
  0.2512920  0.0132716  0.7507562

 Al 
  0.2456586  0.2663680  0.4928432

 Al 
  0.0049998  0.4791681  0.4905413

 Al 
  0.9948678  0.7419756  0.7489939

 Al 
  0.2569601  0.5134412  0.7779974

 Al 
  0.2526979  0.7384177  0.5085714

 Al 
  0.5199743  0.5107408  0.0159485

 Al 
  0.4942379  0.7494295  0.2510111

 Al 
  0.7545208  0.4847112  0.2496102

 Al 
  0.7599735  0.7424038  0.9899856

 Al 
  0.4934768  0.0118497  0.5037152

 Al 
  0.4789429  0.2618979  0.7580937

 Al 
  0.7331283  0.0054948  0.7556519

 Al 
  0.7411589  0.2430127  0.4881503

 Al 
  0.4973504  0.5063029  0.4900587

 Al 
  0.5134127  0.7515903  0.7642530

 Al 
  0.7448307  0.4999158  0.7309193

 Al 
  0.7429781  0.7517351  0.4998280

