32 
charge = 0 
 Al 
  0.9998750  0.9905623  0.9792684

 Al 
  0.9968789  0.2402257  0.2390080

 Al 
  0.2536929  0.9946686  0.2606368

 Al 
  0.2501510  0.2653940  0.0079551

 Al 
  0.4961450  0.9998886  0.9972885

 Al 
  0.4948134  0.2605020  0.2517685

 Al 
  0.7596889  0.9901985  0.2470138

 Al 
  0.7389721  0.2666304  0.9934867

 Al 
  0.9898817  0.4901057  0.0017375

 Al 
  0.0227612  0.7410153  0.2579464

 Al 
  0.2523650  0.4968380  0.2491597

 Al 
  0.2535654  0.7477526  0.0084092

 Al 
  0.0153383  0.9871095  0.4956005

 Al 
  0.9922541  0.2610155  0.7387369

 Al 
  0.2477439  0.0083189  0.7467960

 Al 
  0.2487439  0.2635129  0.4954396

 Al 
  0.0022487  0.4809502  0.4864487

 Al 
  0.9961388  0.7392122  0.7463059

 Al 
  0.2538055  0.5132815  0.7792015

 Al 
  0.2517809  0.7416081  0.5073895

 Al 
  0.5198530  0.5082632  0.0182578

 Al 
  0.4951970  0.7528390  0.2476536

 Al 
  0.7554515  0.4841901  0.2551656

 Al 
  0.7639238  0.7451215  0.9964482

 Al 
  0.4945820  0.0092025  0.5016484

 Al 
  0.4757475  0.2645995  0.7579810

 Al 
  0.7372803  0.9990966  0.7565628

 Al 
  0.7421291  0.2407282  0.4871937

 Al 
  0.5007846  0.5045988  0.4887246

 Al 
  0.5084587  0.7584773  0.7612160

 Al 
  0.7481560  0.5001448  0.7355700

 Al 
  0.7415908  0.7539466  0.5039825

