32 
charge = 0 
 Al 
  0.0022004  0.9890005  0.9786174

 Al 
  0.9943914  0.2418630  0.2372680

 Al 
  0.2528996  0.9927268  0.2626627

 Al 
  0.2486164  0.2640179  0.0082880

 Al 
  0.4984134  0.9991609  0.9982909

 Al 
  0.4967180  0.2603039  0.2558017

 Al 
  0.7601802  0.9899460  0.2485632

 Al 
  0.7407393  0.2662678  0.9880439

 Al 
  0.9890909  0.4910759  0.0023650

 Al 
  0.0206265  0.7414707  0.2614289

 Al 
  0.2555158  0.4976548  0.2475571

 Al 
  0.2531818  0.7458269  0.0093881

 Al 
  0.0143681  0.9903334  0.4957044

 Al 
  0.9915054  0.2604512  0.7368336

 Al 
  0.2497042  0.0111764  0.7489518

 Al 
  0.2469878  0.2652468  0.4939347

 Al 
  0.0038909  0.4796743  0.4886639

 Al 
  0.9953356  0.7407406  0.7478924

 Al 
  0.2555938  0.5134597  0.7788092

 Al 
  0.2522103  0.7398173  0.5079427

 Al 
  0.5202044  0.5096468  0.0172219

 Al 
  0.4944904  0.7508774  0.2493911

 Al 
  0.7549032  0.4842050  0.2519875

 Al 
  0.7617841  0.7435684  0.9926786

 Al 
  0.4939397  0.0107891  0.5028031

 Al 
  0.4772982  0.2630922  0.7581333

 Al 
  0.7348176  0.0025123  0.7561940

 Al 
  0.7415017  0.2419645  0.4875637

 Al 
  0.4988577  0.5055678  0.4892654

 Al 
  0.5114326  0.7547634  0.7630093

 Al 
  0.7463480  0.5000718  0.7329365

 Al 
  0.7422529  0.7527276  0.5018106

