32 
charge = 0 
 Al 
  0.0026744  0.9887295  0.9785543

 Al 
  0.9939100  0.2421699  0.2369351

 Al 
  0.2527474  0.9923779  0.2630154

 Al 
  0.2483070  0.2636726  0.0083362

 Al 
  0.4988602  0.9990471  0.9985434

 Al 
  0.4971053  0.2601963  0.2565838

 Al 
  0.7602532  0.9898891  0.2488454

 Al 
  0.7411118  0.2661007  0.9869450

 Al 
  0.9889783  0.4913036  0.0024702

 Al 
  0.0201054  0.7415635  0.2620959

 Al 
  0.2561383  0.4978306  0.2472378

 Al 
  0.2530951  0.7454854  0.0095626

 Al 
  0.0141020  0.9910103  0.4957502

 Al 
  0.9913767  0.2602953  0.7364932

 Al 
  0.2501002  0.0117172  0.7493985

 Al 
  0.2466474  0.2655512  0.4936525

 Al 
  0.0041879  0.4795010  0.4891268

 Al 
  0.9952044  0.7410487  0.7481845

 Al 
  0.2559415  0.5134696  0.7786483

 Al 
  0.2523217  0.7394622  0.5080825

 Al 
  0.5201896  0.5099265  0.0169398

 Al 
  0.4944000  0.7505049  0.2497772

 Al 
  0.7548030  0.4842904  0.2513774

 Al 
  0.7613373  0.7432689  0.9919756

 Al 
  0.4938196  0.0110725  0.5030308

 Al 
  0.4776768  0.2627914  0.7581370

 Al 
  0.7343721  0.0032399  0.7560801

 Al 
  0.7414014  0.2422207  0.4876875

 Al 
  0.4984766  0.5057559  0.4894337

 Al 
  0.5119623  0.7539837  0.7633384

 Al 
  0.7459730  0.5000408  0.7324254

 Al 
  0.7424187  0.7524801  0.5013341

