32 
charge = 0 
 Al 
  0.0017276  0.9892852  0.9787028

 Al 
  0.9948777  0.2415487  0.2376070

 Al 
  0.2530555  0.9930895  0.2622915

 Al 
  0.2489258  0.2643384  0.0082323

 Al 
  0.4979630  0.9992859  0.9980570

 Al 
  0.4963319  0.2603881  0.2550097

 Al 
  0.7600973  0.9900005  0.2482699

 Al 
  0.7403730  0.2664039  0.9891392

 Al 
  0.9892184  0.4908606  0.0022511

 Al 
  0.0211153  0.7413767  0.2607519

 Al 
  0.2548896  0.4974840  0.2478763

 Al 
  0.2532659  0.7461834  0.0092075

 Al 
  0.0146094  0.9896664  0.4956661

 Al 
  0.9916415  0.2605935  0.7371875

 Al 
  0.2493107  0.0106257  0.7485100

 Al 
  0.2473331  0.2649262  0.4942243

 Al 
  0.0035827  0.4798772  0.4882060

 Al 
  0.9954779  0.7404312  0.7475905

 Al 
  0.2552411  0.5134412  0.7789429

 Al 
  0.2521063  0.7401738  0.5078127

 Al 
  0.5201908  0.5093671  0.0174793

 Al 
  0.4945980  0.7512574  0.2490161

 Al 
  0.7550059  0.4841468  0.2526063

 Al 
  0.7622246  0.7438728  0.9933988

 Al 
  0.4940622  0.0104945  0.5025741

 Al 
  0.4769430  0.2633941  0.7581209

 Al 
  0.7352804  0.0017994  0.7562942

 Al 
  0.7416093  0.2417108  0.4874573

 Al 
  0.4992401  0.5053784  0.4891181

 Al 
  0.5108806  0.7555319  0.7626689

 Al 
  0.7467205  0.5000965  0.7334538

 Al 
  0.7420994  0.7529739  0.5022734

