32 
charge = 0 
 Al 
  0.0007933  0.9898978  0.9789416

 Al 
  0.9958678  0.2408990  0.2382988

 Al 
  0.2533711  0.9938530  0.2614982

 Al 
  0.2495421  0.2649126  0.0081060

 Al 
  0.4970571  0.9995656  0.9976400

 Al 
  0.4955683  0.2604896  0.2534021

 Al 
  0.7599092  0.9901032  0.2476585

 Al 
  0.7396577  0.2665821  0.9913210

 Al 
  0.9895216  0.4904609  0.0020061

 Al 
  0.0220001  0.7411923  0.2593671

 Al 
  0.2536298  0.4971524  0.2485174

 Al 
  0.2534219  0.7469395  0.0088238

 Al 
  0.0150215  0.9883657  0.4956178

 Al 
  0.9919348  0.2608336  0.7379375

 Al 
  0.2485248  0.0094933  0.7476412

 Al 
  0.2480348  0.2642431  0.4948208

 Al 
  0.0029355  0.4803636  0.4873100

 Al 
  0.9957910  0.7398173  0.7469618

 Al 
  0.2545282  0.5133781  0.7791273

 Al 
  0.2519244  0.7408903  0.5075825

 Al 
  0.5200795  0.5088090  0.0179199

 Al 
  0.4948641  0.7520370  0.2483083

 Al 
  0.7552213  0.4841146  0.2538711

 Al 
  0.7630885  0.7444928  0.9948926

 Al 
  0.4943159  0.0098696  0.5021138

 Al 
  0.4762982  0.2639968  0.7580677

 Al 
  0.7362507  0.0004158  0.7564539

 Al 
  0.7418531  0.2412133  0.4872915

 Al 
  0.5000111  0.5049911  0.4888817

 Al 
  0.5097112  0.7570318  0.7619598

 Al 
  0.7474494  0.5001312  0.7345020

 Al 
  0.7418234  0.7534639  0.5031570

