32 
charge = 0 
 Al 
  0.9981164  0.9920474  0.9801643

 Al 
  0.9989617  0.2388174  0.2404708

 Al 
  0.2543401  0.9964432  0.2587174

 Al 
  0.2513254  0.2660809  0.0075764

 Al 
  0.4943159  0.0006683  0.9967576

 Al 
  0.4933506  0.2602668  0.2484778

 Al 
  0.7591555  0.9903681  0.2456413

 Al 
  0.7377098  0.2663309  0.9977439

 Al 
  0.9907529  0.4895216  0.0011621

 Al 
  0.0239109  0.7407071  0.2549960

 Al 
  0.2498503  0.4962576  0.2504455

 Al 
  0.2538092  0.7495372  0.0074873

 Al 
  0.0156737  0.9847433  0.4956388

 Al 
  0.9929657  0.2612024  0.7404646

 Al 
  0.2461957  0.0058648  0.7451958

 Al 
  0.2501609  0.2619326  0.4967365

 Al 
  0.0007945  0.4823833  0.4848621

 Al 
  0.9969333  0.7380414  0.7449408

 Al 
  0.2523501  0.5129981  0.7790208

 Al 
  0.2516224  0.7430201  0.5070888

 Al 
  0.5190634  0.5072521  0.0186266

 Al 
  0.4960522  0.7544998  0.2465125

 Al 
  0.7559502  0.4846691  0.2578078

 Al 
  0.7654856  0.7463814  0.9997178

 Al 
  0.4951537  0.0077496  0.5007017

 Al 
  0.4749369  0.2657876  0.7577038

 Al 
  0.7395092  0.9966672  0.7566432

 Al 
  0.7427751  0.2397889  0.4872073

 Al 
  0.5023241  0.5037993  0.4886330

 Al 
  0.5057250  0.7611777  0.7596493

 Al 
  0.7494790  0.5001139  0.7377642

 Al 
  0.7412504  0.7548809  0.5054478

