32 
charge = 0 
 Al 
  0.9972885  0.9928642  0.9807262

 Al 
  0.0000272  0.2380897  0.2412207

 Al 
  0.2546557  0.9973912  0.2576667

 Al 
  0.2518761  0.2662876  0.0073449

 Al 
  0.4934075  0.0011237  0.9965670

 Al 
  0.4926476  0.2600243  0.2468479

 Al 
  0.7588449  0.9904460  0.2449235

 Al 
  0.7371467  0.2659844  0.9998243

 Al 
  0.9912529  0.4892877  0.0008663

 Al 
  0.0242995  0.7405883  0.2534763

 Al 
  0.2486164  0.4959915  0.2510866

 Al 
  0.2539082  0.7504987  0.0069799

 Al 
  0.0156923  0.9836382  0.4956809

 Al 
  0.9933568  0.2612074  0.7413804

 Al 
  0.2454297  0.0045963  0.7444508

 Al 
  0.2508552  0.2610985  0.4974073

 Al 
  0.0000421  0.4832100  0.4841555

 Al 
  0.9973714  0.7374845  0.7442503

 Al 
  0.2516262  0.5128162  0.7787671

 Al 
  0.2516138  0.7437008  0.5069675

 Al 
  0.5185053  0.5068103  0.0186563

 Al 
  0.4965670  0.7553463  0.2460274

 Al 
  0.7562150  0.4850700  0.2591357

 Al 
  0.7662009  0.7469977  0.0014121

 Al 
  0.4954606  0.0069737  0.5002178

 Al 
  0.4746844  0.2663655  0.7575157

 Al 
  0.7406985  0.9955646  0.7566222

 Al 
  0.7431414  0.2393334  0.4873199

 Al 
  0.5030791  0.5033971  0.4886936

 Al 
  0.5042585  0.7624189  0.7588362

 Al 
  0.7500829  0.5000705  0.7388904

 Al 
  0.7411428  0.7553252  0.5060851

