32 
charge = 0 
 Al 
  0.9954235  0.9950993  0.9824340

 Al 
  0.0027288  0.2362433  0.2431365

 Al 
  0.2553871  0.9998874  0.2548191

 Al 
  0.2530927  0.2664126  0.0066383

 Al 
  0.4911960  0.0024541  0.9962502

 Al 
  0.4910128  0.2590775  0.2429310

 Al 
  0.7579501  0.9906453  0.2430907

 Al 
  0.7359883  0.2645673  0.0048426

 Al 
  0.9926464  0.4888681  0.0001634

 Al 
  0.0247488  0.7404485  0.2495817

 Al 
  0.2456685  0.4953987  0.2526645

 Al 
  0.2540840  0.7530580  0.0055888

 Al 
  0.0152987  0.9811284  0.4958034

 Al 
  0.9944235  0.2609462  0.7437775

 Al 
  0.2435436  0.0013650  0.7427862

 Al 
  0.2525011  0.2589340  0.4991189

 Al 
  0.9981610  0.4855267  0.4827150

 Al 
  0.9985496  0.7362136  0.7425684

 Al 
  0.2498626  0.5122556  0.7776669

 Al 
  0.2518192  0.7452787  0.5066766

 Al 
  0.5166613  0.5059725  0.0182899

 Al 
  0.4980706  0.7574576  0.2450621

 Al 
  0.7568907  0.4865155  0.2623744

 Al 
  0.7677615  0.7484345  0.0057423

 Al 
  0.4962861  0.0049280  0.4989765

 Al 
  0.4745260  0.2677157  0.7569105

 Al 
  0.7438555  0.9931588  0.7564118

 Al 
  0.7441637  0.2382172  0.4879078

 Al 
  0.5048797  0.5023996  0.4891379

 Al 
  0.5003824  0.7651614  0.7567596

 Al 
  0.7513885  0.4998936  0.7417912

 Al 
  0.7410475  0.7563388  0.5073821

