32 
charge = 0 
 Al 
  0.9947738  0.9960658  0.9832286

 Al 
  0.0038117  0.2355069  0.2439161

 Al 
  0.2556458  0.0009158  0.2536075

 Al 
  0.2534949  0.2663111  0.0063004

 Al 
  0.4903495  0.0030568  0.9961710

 Al 
  0.4904176  0.2585751  0.2414695

 Al 
  0.7575491  0.9907368  0.2423642

 Al 
  0.7356406  0.2637951  0.0067620

 Al 
  0.9932466  0.4887617  0.9999146

 Al 
  0.0247240  0.7404708  0.2480013

 Al 
  0.2445659  0.4951921  0.2532771

 Al 
  0.2541236  0.7541260  0.0049911

 Al 
  0.0149658  0.9802337  0.4958418

 Al 
  0.9948827  0.2607297  0.7447651

 Al 
  0.2428023  0.0000705  0.7422095

 Al 
  0.2531088  0.2580491  0.4998082

 Al 
  0.9974321  0.4865316  0.4822917

 Al 
  0.9990409  0.7357631  0.7419348

 Al 
  0.2491882  0.5119945  0.7770445

 Al 
  0.2519937  0.7458443  0.5065405

 Al 
  0.5157579  0.5057670  0.0179744

 Al 
  0.4987439  0.7582830  0.2447701

 Al 
  0.7571543  0.4872618  0.2636020

 Al 
  0.7682850  0.7489481  0.0074823

 Al 
  0.4966388  0.0040864  0.4984667

 Al 
  0.4746597  0.2682033  0.7566160

 Al 
  0.7451760  0.9923395  0.7562744

 Al 
  0.7446104  0.2377754  0.4882605

 Al 
  0.5055517  0.5020061  0.4894238

 Al 
  0.4987748  0.7661019  0.7559242

 Al 
  0.7518143  0.4997995  0.7429867

 Al 
  0.7410759  0.7566965  0.5077806

