32 
charge = 0 
 Al 
  0.9928246  0.0002809  0.9869833

 Al 
  0.0080070  0.2327199  0.2471078

 Al 
  0.2563982  0.0049849  0.2484914

 Al 
  0.2544763  0.2650958  0.0045914

 Al 
  0.4873224  0.0058178  0.9959470

 Al 
  0.4884684  0.2559873  0.2365502

 Al 
  0.7557411  0.9912888  0.2396763

 Al 
  0.7350144  0.2597211  0.0138619

 Al 
  0.9957514  0.4886615  0.9992921

 Al 
  0.0235236  0.7411353  0.2416638

 Al 
  0.2407604  0.4945151  0.2555505

 Al 
  0.2541038  0.7585082  0.0024182

 Al 
  0.0126516  0.9773340  0.4958084

 Al 
  0.9968764  0.2591753  0.7487525

 Al 
  0.2399089  0.9950931  0.7404250

 Al 
  0.2551557  0.2544664  0.5025308

 Al 
  0.9948480  0.4908247  0.4816519

 Al 
  0.0010037  0.7343943  0.7397654

 Al 
  0.2467811  0.5107841  0.7735360

 Al 
  0.2532474  0.7476462  0.5056928

 Al 
  0.5113447  0.5058165  0.0158433

 Al 
  0.5017177  0.7613262  0.2440560

 Al 
  0.7580491  0.4910834  0.2677924

 Al 
  0.7697379  0.7504888  0.0142778

 Al 
  0.4981399  0.0007425  0.4963603

 Al 
  0.4763923  0.2697317  0.7551780

 Al 
  0.7506621  0.9898607  0.7554700

 Al 
  0.7465856  0.2359685  0.4902814

 Al 
  0.5078263  0.5004938  0.4911316

 Al 
  0.4922467  0.7689248  0.7525939

 Al 
  0.7528810  0.4993268  0.7480100

 Al 
  0.7415549  0.7578028  0.5087087

