32 
charge = 0 
 Al 
  0.9941859  0.9970695  0.9840825

 Al 
  0.0048859  0.2347817  0.2447032

 Al 
  0.2558784  0.0019479  0.2523637

 Al 
  0.2538402  0.2661267  0.0059279

 Al 
  0.4895327  0.0036978  0.9961066

 Al 
  0.4898631  0.2580095  0.2400871

 Al 
  0.7571259  0.9908420  0.2416526

 Al 
  0.7353658  0.2629164  0.0086258

 Al 
  0.9938605  0.4886887  0.9996968

 Al 
  0.0245867  0.7405450  0.2464148

 Al 
  0.2435176  0.4950002  0.2538760

 Al 
  0.2541458  0.7552101  0.0043711

 Al 
  0.0145327  0.9794057  0.4958641

 Al 
  0.9953579  0.2604463  0.7457613

 Al 
  0.2420685  0.9987884  0.7416848

 Al 
  0.2536805  0.2571593  0.5004963

 Al 
  0.9967291  0.4875687  0.4819675

 Al 
  0.9995347  0.7353534  0.7413333

 Al 
  0.2485384  0.5117160  0.7763192

 Al 
  0.2522239  0.7463665  0.5063821

 Al 
  0.5147691  0.5056445  0.0175672

 Al 
  0.4994518  0.7590874  0.2445275

 Al 
  0.7574068  0.4880959  0.2647703

 Al 
  0.7687466  0.7494146  0.0092149

 Al 
  0.4970014  0.0032412  0.4979494

 Al 
  0.4749121  0.2686538  0.7562942

 Al 
  0.7465212  0.9916019  0.7561086

 Al 
  0.7450770  0.2373323  0.4886775

 Al 
  0.5061878  0.5016187  0.4897691

 Al 
  0.4971499  0.7669509  0.7550876

 Al 
  0.7521781  0.4996943  0.7442045

 Al 
  0.7411415  0.7570232  0.5081122

