32 
charge = 0 
 Al 
  0.9932083  0.9991783  0.9859599

 Al 
  0.0069898  0.2333820  0.2462972

 Al 
  0.2562559  0.0039911  0.2498008

 Al 
  0.2543352  0.2655178  0.0050740

 Al 
  0.4880142  0.0050814  0.9960002

 Al 
  0.4888855  0.2567101  0.2376169

 Al 
  0.7562212  0.9911131  0.2403012

 Al 
  0.7350502  0.2608707  0.0121764

 Al 
  0.9951178  0.4886392  0.9993787

 Al 
  0.0239840  0.7408730  0.2432404

 Al 
  0.2416093  0.4946624  0.2550158

 Al 
  0.2541347  0.7574056  0.0030828

 Al 
  0.0133743  0.9779541  0.4958517

 Al 
  0.9963554  0.2596716  0.7477588

 Al 
  0.2406242  0.9962923  0.7407950

 Al 
  0.2547065  0.2553673  0.5018588

 Al 
  0.9954309  0.4897208  0.4816408

 Al 
  0.0005198  0.7346654  0.7402455

 Al 
  0.2473306  0.5111096  0.7745656

 Al 
  0.2528513  0.7472687  0.5059638

 Al 
  0.5125575  0.5056680  0.0164967

 Al 
  0.5009443  0.7606133  0.2441760

 Al 
  0.7578585  0.4900129  0.2668766

 Al 
  0.7694755  0.7501906  0.0126194

 Al 
  0.4977551  0.0015630  0.4968962

 Al 
  0.4757760  0.2694223  0.7555740

 Al 
  0.7492674  0.9903656  0.7557052

 Al 
  0.7460646  0.2364326  0.4896911

 Al 
  0.5073301  0.5008613  0.4906242

 Al 
  0.4938778  0.7683630  0.7534231

 Al 
  0.7527140  0.4994567  0.7467143

 Al 
  0.7413816  0.7575776  0.5085751

