32 
charge = 0 
 Al 
  0.9930078  0.9997265  0.9864648

 Al 
  0.0075021  0.2330479  0.2467007

 Al 
  0.2563314  0.0044911  0.2491486

 Al 
  0.2544156  0.2653161  0.0048376

 Al 
  0.4876627  0.0054465  0.9959742

 Al 
  0.4886714  0.2563536  0.2370687

 Al 
  0.7559824  0.9911972  0.2399844

 Al 
  0.7350218  0.2603052  0.0130266

 Al 
  0.9954346  0.4886466  0.9993292

 Al 
  0.0237662  0.7409955  0.2424509

 Al 
  0.2411749  0.4945869  0.2552856

 Al 
  0.2541211  0.7579575  0.0027523

 Al 
  0.0130253  0.9776348  0.4958331

 Al 
  0.9966140  0.2594327  0.7482575

 Al 
  0.2402666  0.9956871  0.7406032

 Al 
  0.2549366  0.2549168  0.5021954

 Al 
  0.9951327  0.4902703  0.4816309

 Al 
  0.0007623  0.7345230  0.7400005

 Al 
  0.2470509  0.5109487  0.7740644

 Al 
  0.2530419  0.7474642  0.5058351

 Al 
  0.5119586  0.5057312  0.0161799

 Al 
  0.5013291  0.7609747  0.2441117

 Al 
  0.7579575  0.4905388  0.2673482

 Al 
  0.7696154  0.7503478  0.0134523

 Al 
  0.4979469  0.0011509  0.4966289

 Al 
  0.4760680  0.2695832  0.7553784

 Al 
  0.7499629  0.9901032  0.7555901

 Al 
  0.7463232  0.2362024  0.4899795

 Al 
  0.5075850  0.5006769  0.4908717

 Al 
  0.4930610  0.7686563  0.7530085

 Al 
  0.7528056  0.4993924  0.7473590

 Al 
  0.7414633  0.7576952  0.5086493

