32 
charge = 0 
 Al 
  0.9936637  0.9981065  0.9849933

 Al 
  0.0059477  0.2340713  0.2454965

 Al 
  0.2560826  0.0029763  0.2510928

 Al 
  0.2541223  0.2658618  0.0055195

 Al 
  0.4887530  0.0043735  0.9960522

 Al 
  0.4893508  0.2573858  0.2388001

 Al 
  0.7566828  0.9909658  0.2409621

 Al 
  0.7351678  0.2619388  0.0104314

 Al 
  0.9944867  0.4886478  0.9995161

 Al 
  0.0243391  0.7406774  0.2448270

 Al 
  0.2425301  0.4948245  0.2544565

 Al 
  0.2541495  0.7563054  0.0037350

 Al 
  0.0140018  0.9786459  0.4958690

 Al 
  0.9958492  0.2600936  0.7467601

 Al 
  0.2413433  0.9975261  0.7412133

 Al 
  0.2542139  0.2562645  0.5011806

 Al 
  0.9960596  0.4886342  0.4817484

 Al 
  0.0000297  0.7349859  0.7407690

 Al 
  0.2479184  0.5114202  0.7754938

 Al 
  0.2525098  0.7468417  0.5061915

 Al 
  0.5137011  0.5056111  0.0170734

 Al 
  0.5001869  0.7598646  0.2443320

 Al 
  0.7576432  0.4890154  0.2658656

 Al 
  0.7691439  0.7498305  0.0109289

 Al 
  0.4973739  0.0023984  0.4974259

 Al 
  0.4752834  0.2690622  0.7559465

 Al 
  0.7478862  0.9909448  0.7559193

 Al 
  0.7455609  0.2368856  0.4891552

 Al 
  0.5067818  0.5012376  0.4901700

 Al 
  0.4955138  0.7677046  0.7542547

 Al 
  0.7524788  0.4995792  0.7454470

 Al 
  0.7412430  0.7573177  0.5083758

