32 
charge = 0 
 Al 
  0.9921947  0.0031657  0.9897790

 Al 
  0.0104166  0.2312150  0.2491807

 Al 
  0.2566036  0.0073152  0.2451735

 Al 
  0.2544862  0.2637122  0.0032102

 Al 
  0.4858299  0.0077533  0.9957626

 Al 
  0.4876429  0.2540258  0.2344426

 Al 
  0.7544676  0.9918828  0.2383248

 Al 
  0.7352978  0.2565492  0.0178036

 Al 
  0.9973306  0.4888508  0.9993218

 Al 
  0.0219506  0.7420969  0.2377939

 Al 
  0.2389795  0.4942020  0.2567658

 Al 
  0.2539466  0.7612507  0.0007141

 Al 
  0.0104475  0.9760903  0.4955683

 Al 
  0.9982389  0.2576110  0.7511942

 Al 
  0.2381256  0.9922974  0.7397146

 Al 
  0.2560826  0.2521905  0.5041681

 Al 
  0.9936402  0.4936550  0.4822360

 Al 
  0.0021645  0.7339377  0.7387753

 Al 
  0.2455844  0.5099178  0.7705015

 Al 
  0.2544664  0.7483689  0.5047720

 Al 
  0.5080367  0.5065863  0.0138954

 Al 
  0.5036768  0.7629325  0.2438815

 Al 
  0.7583771  0.4940448  0.2695980

 Al 
  0.7700683  0.7509517  0.0182194

 Al 
  0.4991102  0.9987810  0.4949953

 Al 
  0.4784751  0.2702614  0.7540889

 Al 
  0.7541805  0.9888991  0.7547956

 Al 
  0.7479704  0.2347508  0.4919868

 Al 
  0.5088114  0.4996015  0.4926254

 Al 
  0.4882493  0.7699025  0.7505334

 Al 
  0.7530023  0.4989864  0.7513984

 Al 
  0.7421440  0.7582149  0.5087780

