32 
charge = 0 
 Al 
  0.9920536  0.0049701  0.9916118

 Al 
  0.0117445  0.2304502  0.2504727

 Al 
  0.2566234  0.0085615  0.2431798

 Al 
  0.2542473  0.2626689  0.0022586

 Al 
  0.4851220  0.0089525  0.9955844

 Al 
  0.4872964  0.2527833  0.2336035

 Al 
  0.7536595  0.9923692  0.2377011

 Al 
  0.7357321  0.2544961  0.0199743

 Al 
  0.9982662  0.4890550  0.9995248

 Al 
  0.0207539  0.7428902  0.2355638

 Al 
  0.2381640  0.4940535  0.2574006

 Al 
  0.2537981  0.7628657  0.9996795

 Al 
  0.0088684  0.9755544  0.4953171

 Al 
  0.9990916  0.2564502  0.7526125

 Al 
  0.2370464  0.9907962  0.7394275

 Al 
  0.2564997  0.2508069  0.5051124

 Al 
  0.9931130  0.4953913  0.4829922

 Al 
  0.0028105  0.7338176  0.7383347

 Al 
  0.2449990  0.5093609  0.7683543

 Al 
  0.2553364  0.7486511  0.5040060

 Al 
  0.5058846  0.5073115  0.0125365

 Al 
  0.5048290  0.7637567  0.2438419

 Al 
  0.7584513  0.4959915  0.2703134

 Al 
  0.7700262  0.7510173  0.0203876

 Al 
  0.4996857  0.9976919  0.4941550

 Al 
  0.4801000  0.2703963  0.7533773

 Al 
  0.7562967  0.9885055  0.7543463

 Al 
  0.7488602  0.2339723  0.4931526

 Al 
  0.5092099  0.4990904  0.4936649

 Al 
  0.4859549  0.7701908  0.7493082

 Al 
  0.7528736  0.4987822  0.7535481

 Al 
  0.7426006  0.7583474  0.5086530

