32 
charge = 0 
 Al 
  0.9922232  0.0080516  0.9948901

 Al 
  0.0137060  0.2294837  0.2527400

 Al 
  0.2564873  0.0102693  0.2399423

 Al 
  0.2534355  0.2606269  0.0004505

 Al 
  0.4843127  0.0109413  0.9950968

 Al 
  0.4869672  0.2507091  0.2329848

 Al 
  0.7522487  0.9934335  0.2370625

 Al 
  0.7369103  0.2509542  0.0232377

 Al 
  0.9997983  0.4895537  0.0001832

 Al 
  0.0184446  0.7445634  0.2321110

 Al 
  0.2372506  0.4938741  0.2582793

 Al 
  0.2534540  0.7654485  0.9979766

 Al 
  0.0058685  0.9750161  0.4946859

 Al 
  0.0005445  0.2541669  0.7548537

 Al 
  0.2352186  0.9886738  0.7391664

 Al 
  0.2569489  0.2484617  0.5065937

 Al 
  0.9926118  0.4983380  0.4849624

 Al 
  0.0037585  0.7338746  0.7378917

 Al 
  0.2442540  0.5083610  0.7642295

 Al 
  0.2569526  0.7488738  0.5022734

 Al 
  0.5020618  0.5089179  0.0100144

 Al 
  0.5066098  0.7648507  0.2438506

 Al 
  0.7583238  0.4994419  0.2708406

 Al 
  0.7695176  0.7507549  0.0235162

 Al 
  0.5006064  0.9960819  0.4927306

 Al 
  0.4834253  0.2702861  0.7521212

 Al 
  0.7597842  0.9881144  0.7535617

 Al 
  0.7504480  0.2326061  0.4953134

 Al 
  0.5095342  0.4982885  0.4956128

 Al 
  0.4824328  0.7701698  0.7472947

 Al 
  0.7523427  0.4984679  0.7573338

 Al 
  0.7435189  0.7583461  0.5082026

