32 
charge = 0 
 Al 
  0.9932701  0.0122816  0.9997847

 Al 
  0.0157579  0.2289949  0.2562386

 Al 
  0.2559762  0.0116120  0.2358707

 Al 
  0.2515123  0.2573499  0.9974655

 Al 
  0.4841097  0.0134696  0.9938196

 Al 
  0.4870155  0.2480966  0.2338510

 Al 
  0.7501931  0.9954495  0.2372061

 Al 
  0.7394931  0.2461376  0.0269207

 Al 
  0.0018749  0.4905920  0.0017227

 Al 
  0.0148792  0.7475546  0.2281743

 Al 
  0.2369363  0.4937911  0.2590763

 Al 
  0.2527412  0.7686154  0.9957354

 Al 
  0.0011658  0.9750074  0.4933159

 Al 
  0.0025222  0.2504022  0.7575652

 Al 
  0.2326172  0.9866900  0.7391775

 Al 
  0.2570393  0.2451178  0.5083919

 Al 
  0.9927343  0.5024615  0.4891639

 Al 
  0.0047126  0.7344760  0.7379820

 Al 
  0.2436884  0.5067645  0.7574093

 Al 
  0.2593312  0.7487501  0.4986956

 Al 
  0.4963430  0.5118447  0.0061235

 Al 
  0.5085714  0.7656750  0.2439483

 Al 
  0.7575751  0.5044676  0.2701970

 Al 
  0.7677912  0.7496399  0.0264380

 Al 
  0.5017400  0.9944025  0.4907690

 Al 
  0.4892691  0.2693307  0.7503082

 Al 
  0.7643743  0.9880167  0.7525160

 Al 
  0.7528971  0.2306656  0.4987092

 Al 
  0.5092904  0.4973182  0.4986597

 Al 
  0.4784998  0.7691166  0.7446067

 Al 
  0.7510383  0.4981338  0.7629833

 Al 
  0.7450423  0.7577731  0.5071779

