32 
charge = 0 
 Al 
  0.9925610  0.0098993  0.9969605

 Al 
  0.0146961  0.2291347  0.2541891

 Al 
  0.2563103  0.0110143  0.2381083

 Al 
  0.2527115  0.2592619  0.9992327

 Al 
  0.4840812  0.0120811  0.9946463

 Al 
  0.4869165  0.2495248  0.2331073

 Al 
  0.7513749  0.9942292  0.2369635

 Al 
  0.7378892  0.2488367  0.0249567

 Al 
  0.0006992  0.4899498  0.0007623

 Al 
  0.0169360  0.7457626  0.2302671

 Al 
  0.2369784  0.4938122  0.2586865

 Al 
  0.2531842  0.7668878  0.9969878

 Al 
  0.0038983  0.9749059  0.4941686

 Al 
  0.0014108  0.2526174  0.7560913

 Al 
  0.2341047  0.9876702  0.7391243

 Al 
  0.2570652  0.2470348  0.5074093

 Al 
  0.9925474  0.5001176  0.4865675

 Al 
  0.0042275  0.7340590  0.7378199

 Al 
  0.2439446  0.5077088  0.7614413

 Al 
  0.2579761  0.7488738  0.5009146

 Al 
  0.4996510  0.5100886  0.0083820

 Al 
  0.5075442  0.7653136  0.2438852

 Al 
  0.7580850  0.5015903  0.2707552

 Al 
  0.7689273  0.7503762  0.0250111

 Al 
  0.5011188  0.9952688  0.4918754

 Al 
  0.4857742  0.2699978  0.7513428

 Al 
  0.7618113  0.9880154  0.7530939

 Al 
  0.7514677  0.2317645  0.4967229

 Al 
  0.5095243  0.4978466  0.4968851

 Al 
  0.4805765  0.7698592  0.7461178

 Al 
  0.7518526  0.4983058  0.7597149

 Al 
  0.7441476  0.7581902  0.5078115

