32 
charge = 0 
 Al 
  0.9930672  0.0116999  0.9990755

 Al 
  0.0155215  0.2289924  0.2557138

 Al 
  0.2560702  0.0115081  0.2364029

 Al 
  0.2518341  0.2578338  0.9979209

 Al 
  0.4840651  0.0131404  0.9940523

 Al 
  0.4869734  0.2484332  0.2336035

 Al 
  0.7504901  0.9951290  0.2371034

 Al 
  0.7390612  0.2467922  0.0264677

 Al 
  0.0015841  0.4904200  0.0014640

 Al 
  0.0153916  0.7470880  0.2286533

 Al 
  0.2369128  0.4937887  0.2589958

 Al 
  0.2528612  0.7682083  0.9960398

 Al 
  0.0018539  0.9749567  0.4935461

 Al 
  0.0022511  0.2509678  0.7572187

 Al 
  0.2329885  0.9868955  0.7391540

 Al 
  0.2570652  0.2455980  0.5081592

 Al 
  0.9926600  0.5018811  0.4884696

 Al 
  0.0046074  0.7343535  0.7379127

 Al 
  0.2437355  0.5070096  0.7584464

 Al 
  0.2589983  0.7487921  0.4992946

 Al 
  0.4971771  0.5113881  0.0066927

 Al 
  0.5083412  0.7656131  0.2439310

 Al 
  0.7577224  0.5037523  0.2703814

 Al 
  0.7681130  0.7498465  0.0261485

 Al 
  0.5015927  0.9945943  0.4910400

 Al 
  0.4883607  0.2695287  0.7505643

 Al 
  0.7637530  0.9880043  0.7526533

 Al 
  0.7525333  0.2309341  0.4982031

 Al 
  0.5093721  0.4974432  0.4982105

 Al 
  0.4789713  0.7693357  0.7449767

 Al 
  0.7512574  0.4981709  0.7621591

 Al 
  0.7448159  0.7579006  0.5073462

