32 
charge = 0 
 Al 
  0.9924298  0.0092867  0.9962638

 Al 
  0.0143830  0.2292288  0.2536978

 Al 
  0.2563772  0.0107915  0.2387072

 Al 
  0.2529714  0.2597260  0.9996485

 Al 
  0.4841357  0.0117086  0.9948109

 Al 
  0.4869214  0.2499121  0.2330244

 Al 
  0.7516682  0.9939508  0.2369709

 Al 
  0.7375402  0.2495372  0.0244047

 Al 
  0.0004010  0.4898099  0.0005557

 Al 
  0.0174447  0.7453480  0.2308586

 Al 
  0.2370452  0.4938295  0.2585615

 Al 
  0.2532795  0.7664200  0.9973133

 Al 
  0.0045666  0.9749245  0.4943530

 Al 
  0.0011237  0.2531471  0.7556903

 Al 
  0.2344773  0.9879808  0.7391305

 Al 
  0.2570393  0.2475125  0.5071444

 Al 
  0.9925486  0.4995248  0.4859982

 Al 
  0.0040815  0.7339847  0.7378261

 Al 
  0.2440362  0.5079303  0.7623954

 Al 
  0.2576333  0.7488837  0.5013960

 Al 
  0.5004628  0.5096827  0.0089340

 Al 
  0.5072472  0.7651762  0.2438716

 Al 
  0.7581778  0.5008712  0.2708158

 Al 
  0.7691488  0.7505198  0.0245495

 Al 
  0.5009517  0.9955250  0.4921588

 Al 
  0.4849636  0.2701129  0.7516026

 Al 
  0.7611443  0.9880377  0.7532474

 Al 
  0.7511225  0.2320442  0.4962440

 Al 
  0.5095441  0.4979902  0.4964544

 Al 
  0.4811692  0.7699866  0.7465064

 Al 
  0.7520284  0.4983565  0.7589129

 Al 
  0.7439335  0.7582570  0.5079513

