32 
charge = 0 
 Al 
  0.9928803  0.0111084  0.9983677

 Al 
  0.0152653  0.2290147  0.2551965

 Al 
  0.2561569  0.0113732  0.2369536

 Al 
  0.2521422  0.2583152  0.9983677

 Al 
  0.4840453  0.0127976  0.9942676

 Al 
  0.4869425  0.2487847  0.2333969

 Al 
  0.7507859  0.9948183  0.2370291

 Al 
  0.7386491  0.2474618  0.0259876

 Al 
  0.0012908  0.4902554  0.0012178

 Al 
  0.0159076  0.7466338  0.2291619

 Al 
  0.2369115  0.4937924  0.2589043

 Al 
  0.2529751  0.7677838  0.9963504

 Al 
  0.0025407  0.9749220  0.4937652

 Al 
  0.0019751  0.2515272  0.7568573

 Al 
  0.2333597  0.9871269  0.7391379

 Al 
  0.2570789  0.2460769  0.5079167

 Al 
  0.9926031  0.5012970  0.4878038

 Al 
  0.0044911  0.7342434  0.7378620

 Al 
  0.2437949  0.5072472  0.7594661

 Al 
  0.2586605  0.7488280  0.4998639

 Al 
  0.4980075  0.5109425  0.0072608

 Al 
  0.5080924  0.7655326  0.2439149

 Al 
  0.7578560  0.5030333  0.2705373

 Al 
  0.7684100  0.7500384  0.0258131

 Al 
  0.5014393  0.9948022  0.4913148

 Al 
  0.4874734  0.2697057  0.7508230

 Al 
  0.7631182  0.9879994  0.7527957

 Al 
  0.7521732  0.2312089  0.4977031

 Al 
  0.5094377  0.4975731  0.4977637

 Al 
  0.4794750  0.7695324  0.7453517

 Al 
  0.7514665  0.4982130  0.7613385

 Al 
  0.7445894  0.7580132  0.5075083

