32 
charge = 0 
 Al 
  0.9939706  0.0139473  0.0019034

 Al 
  0.0163383  0.2291656  0.2578598

 Al 
  0.2556618  0.0117346  0.2344005

 Al 
  0.2504752  0.2558970  0.9960547

 Al 
  0.4843993  0.0143693  0.9930152

 Al 
  0.4872061  0.2471833  0.2348275

 Al 
  0.7493057  0.9964544  0.2376850

 Al 
  0.7409002  0.2442849  0.0281174

 Al 
  0.0027325  0.4911539  0.0025568

 Al 
  0.0133719  0.7490124  0.2269380

 Al 
  0.2371393  0.4938233  0.2592458

 Al 
  0.2523427  0.7697230  0.9948666

 Al 
  0.9991090  0.9752587  0.4925622

 Al 
  0.0032894  0.2486795  0.7585033

 Al 
  0.2315170  0.9862408  0.7392765

 Al 
  0.2568833  0.2436822  0.5090379

 Al 
  0.9930610  0.5041632  0.4914039

 Al 
  0.0049614  0.7349154  0.7383137

 Al 
  0.2436030  0.5059972  0.7541978

 Al 
  0.2602841  0.7485917  0.4967291

 Al 
  0.4938233  0.5132691  0.0044094

 Al 
  0.5091431  0.7657418  0.2439991

 Al 
  0.7570578  0.5065715  0.2694780

 Al 
  0.7666700  0.7489468  0.0270148

 Al 
  0.5021509  0.9939372  0.4899931

 Al 
  0.4921155  0.2686068  0.7495557

 Al 
  0.7661440  0.9880996  0.7521447

 Al 
  0.7540097  0.2298970  0.5002537

 Al 
  0.5089674  0.4969754  0.5000136

 Al 
  0.4772982  0.7683370  0.7435374

 Al 
  0.7503379  0.4980447  0.7654646

 Al 
  0.7457279  0.7572967  0.5066395

