32 
charge = 0 
 Al 
  0.9963442  0.0175066  0.0072385

 Al 
  0.0169336  0.2308722  0.2624363

 Al 
  0.2546483  0.0106356  0.2316135

 Al 
  0.2474704  0.2522437  0.9921514

 Al 
  0.4862977  0.0159646  0.9901465

 Al 
  0.4881541  0.2456067  0.2389040

 Al 
  0.7470113  0.9992154  0.2401849

 Al 
  0.7452923  0.2404980  0.0299960

 Al 
  0.0048698  0.4929199  0.0050728

 Al 
  0.0098757  0.7531632  0.2252958

 Al 
  0.2385451  0.4941302  0.2591691

 Al 
  0.2509987  0.7716734  0.9929471

 Al 
  0.9941030  0.9765457  0.4902059

 Al 
  0.0048661  0.2441934  0.7601270

 Al 
  0.2288043  0.9862296  0.7396540

 Al 
  0.2559589  0.2399658  0.5103188

 Al 
  0.9945337  0.5081840  0.4981399

 Al 
  0.0051173  0.7365799  0.7401255

 Al 
  0.2437491  0.5036966  0.7452589

 Al 
  0.2622519  0.7481065  0.4903891

 Al 
  0.4871615  0.5172553  0.0000359

 Al 
  0.5096876  0.7650661  0.2440882

 Al 
  0.7552510  0.5115304  0.2666130

 Al 
  0.7626528  0.7468232  0.0262338

 Al 
  0.5029900  0.9935300  0.4883125

 Al 
  0.5002388  0.2657133  0.7477934

 Al 
  0.7699582  0.9885600  0.7515804

 Al 
  0.7570244  0.2283526  0.5044292

 Al 
  0.5076481  0.4963009  0.5034726

 Al 
  0.4757908  0.7655500  0.7410462

 Al 
  0.7483404  0.4980174  0.7719247

 Al 
  0.7474296  0.7553673  0.5050963

