32 
charge = 0 
 Al 
  0.9953913  0.0163519  0.0053203

 Al 
  0.0168742  0.2300158  0.2606901

 Al 
  0.2550480  0.0112841  0.2324489

 Al 
  0.2486040  0.2535518  0.9936179

 Al 
  0.4854005  0.0155166  0.9913333

 Al 
  0.4877296  0.2460410  0.2371578

 Al 
  0.7478516  0.9981956  0.2390500

 Al 
  0.7435585  0.2416885  0.0295233

 Al 
  0.0040988  0.4922194  0.0040988

 Al 
  0.0110725  0.7515841  0.2256163

 Al 
  0.2378843  0.4939768  0.2592842

 Al 
  0.2515482  0.7711277  0.9935907

 Al 
  0.9958566  0.9759715  0.4911341

 Al 
  0.0043723  0.2458257  0.7596790

 Al 
  0.2297683  0.9860391  0.7395055

 Al 
  0.2563846  0.2413296  0.5099178

 Al 
  0.9939013  0.5067893  0.4955336

 Al 
  0.0051470  0.7358769  0.7392877

 Al 
  0.2436402  0.5046000  0.7486337

 Al 
  0.2616368  0.7482810  0.4929286

 Al 
  0.4896317  0.5157529  0.0016200

 Al 
  0.5096592  0.7654596  0.2440671

 Al 
  0.7559849  0.5098201  0.2678172

 Al 
  0.7643186  0.7476338  0.0269306

 Al 
  0.5027202  0.9935399  0.4888619

 Al 
  0.4971412  0.2669608  0.7484023

 Al 
  0.7687020  0.9883558  0.7517078

 Al 
  0.7558982  0.2288228  0.5028699

 Al 
  0.5082038  0.4965138  0.5022251

 Al 
  0.4760594  0.7666922  0.7419113

 Al 
  0.7490879  0.4979877  0.7695560

 Al 
  0.7468269  0.7561940  0.5056792

