32 
charge = 0 
 Al 
  0.9945065  0.0149733  0.0032956

 Al 
  0.0166180  0.2294193  0.2589760

 Al 
  0.2554279  0.0116517  0.2335404

 Al 
  0.2497401  0.2549403  0.9950881

 Al 
  0.4847223  0.0148854  0.9923915

 Al 
  0.4873868  0.2466660  0.2356616

 Al 
  0.7487179  0.9971474  0.2381479

 Al 
  0.7419212  0.2431625  0.0287709

 Al 
  0.0032894  0.4915623  0.0031558

 Al 
  0.0124128  0.7500248  0.2262945

 Al 
  0.2373793  0.4938691  0.2592966

 Al 
  0.2520432  0.7703554  0.9943283

 Al 
  0.9977711  0.9755025  0.4920140

 Al 
  0.0037572  0.2475274  0.7590354

 Al 
  0.2308005  0.9860799  0.7393619

 Al 
  0.2567175  0.2427318  0.5094203

 Al 
  0.9933580  0.5052522  0.4930078

 Al 
  0.0050703  0.7352668  0.7386392

 Al 
  0.2435931  0.5054552  0.7519937

 Al 
  0.2608683  0.7484691  0.4952824

 Al 
  0.4921402  0.5142518  0.0032783

 Al 
  0.5094179  0.7656873  0.2440300

 Al 
  0.7566568  0.5079192  0.2688753

 Al 
  0.7657987  0.7484370  0.0271410

 Al 
  0.5023959  0.9937206  0.4895129

 Al 
  0.4940931  0.2680140  0.7490768

 Al 
  0.7672318  0.9881875  0.7519393

 Al 
  0.7547634  0.2294305  0.5012982

 Al 
  0.5086914  0.4967749  0.5009108

 Al 
  0.4766843  0.7677256  0.7428617

 Al 
  0.7498453  0.4980075  0.7671143

 Al 
  0.7461784  0.7568994  0.5062621

