32 
charge = 0 
 Al 
  0.9957032  0.0167628  0.0059737

 Al 
  0.0169150  0.2302733  0.2612692

 Al 
  0.2549168  0.0110985  0.2321407

 Al 
  0.2482229  0.2531050  0.9931278

 Al 
  0.4856752  0.0156861  0.9909509

 Al 
  0.4878632  0.2458752  0.2377135

 Al 
  0.7475682  0.9985397  0.2394040

 Al 
  0.7441278  0.2412579  0.0297126

 Al 
  0.0043599  0.4924484  0.0044206

 Al 
  0.0106567  0.7521088  0.2254703

 Al 
  0.2380872  0.4940226  0.2592570

 Al 
  0.2513700  0.7713356  0.9933654

 Al 
  0.9952515  0.9761522  0.4908284

 Al 
  0.0045518  0.2452725  0.7598510

 Al 
  0.2294379  0.9860774  0.7395562

 Al 
  0.2562522  0.2408705  0.5100626

 Al 
  0.9941043  0.5072719  0.4963962

 Al 
  0.0051483  0.7361022  0.7395463

 Al 
  0.2436699  0.5043042  0.7475075

 Al 
  0.2618608  0.7482204  0.4921006

 Al 
  0.4888025  0.5162554  0.0010829

 Al 
  0.5096926  0.7653458  0.2440758

 Al 
  0.7557460  0.5104129  0.2674298

 Al 
  0.7637827  0.7473628  0.0267512

 Al 
  0.5028155  0.9935176  0.4886676

 Al 
  0.4981709  0.2665672  0.7481907

 Al 
  0.7691451  0.9884201  0.7516534

 Al 
  0.7562757  0.2286496  0.5033922

 Al 
  0.5080244  0.4964383  0.5026496

 Al 
  0.4759306  0.7663222  0.7416130

 Al 
  0.7488367  0.4979927  0.7703554

 Al 
  0.7470348  0.7559304  0.5054849

