32 
charge = 0 
 Al 
  0.9960212  0.0171489  0.0066123

 Al 
  0.0169348  0.2305579  0.2618521

 Al 
  0.2547832  0.0108819  0.2318623

 Al 
  0.2478454  0.2526694  0.9926377

 Al 
  0.4859747  0.0158358  0.9905549

 Al 
  0.4880043  0.2457304  0.2382964

 Al 
  0.7472873  0.9988812  0.2397827

 Al 
  0.7447057  0.2408618  0.0298698

 Al 
  0.0046173  0.4926823  0.0047461

 Al 
  0.0102582  0.7526360  0.2253626

 Al 
  0.2383087  0.4940746  0.2592186

 Al 
  0.2511881  0.7715175  0.9931513

 Al 
  0.9946673  0.9763440  0.4905190

 Al 
  0.0047164  0.2447280  0.7600007

 Al 
  0.2291161  0.9861418  0.7396045

 Al 
  0.2561098  0.2404151  0.5101963

 Al 
  0.9943146  0.5077372  0.4972662

 Al 
  0.0051396  0.7363361  0.7398260

 Al 
  0.2437070  0.5040023  0.7463826

 Al 
  0.2620650  0.7481622  0.4912529

 Al 
  0.4879796  0.5167566  0.0005544

 Al 
  0.5097025  0.7652146  0.2440832

 Al 
  0.7555010  0.5109834  0.2670276

 Al 
  0.7632271  0.7470917  0.0265197

 Al 
  0.5029058  0.9935152  0.4884832

 Al 
  0.4992042  0.2661502  0.7479877

 Al 
  0.7695646  0.9884882  0.7516113

 Al 
  0.7566519  0.2284924  0.5039119

 Al 
  0.5078387  0.4963665  0.5030654

 Al 
  0.4758415  0.7659410  0.7413247

 Al 
  0.7485867  0.4980013  0.7711450

 Al 
  0.7472353  0.7556544  0.5052893

