32 
charge = 0 
 Al 
  0.9966697  0.0178382  0.0078486

 Al 
  0.0169113  0.2312150  0.2630216

 Al 
  0.2545134  0.0103621  0.2313932

 Al 
  0.2471016  0.2518304  0.9916687

 Al 
  0.4866418  0.0160722  0.9897282

 Al 
  0.4883125  0.2455052  0.2395327

 Al 
  0.7467403  0.9995433  0.2406106

 Al 
  0.7458863  0.2401700  0.0300901

 Al 
  0.0051173  0.4931625  0.0054007

 Al 
  0.0095107  0.7536879  0.2252686

 Al 
  0.2387963  0.4941909  0.2591085

 Al 
  0.2508057  0.7718034  0.9927553

 Al 
  0.9935610  0.9767586  0.4898904

 Al 
  0.0049998  0.2436723  0.7602309

 Al 
  0.2285023  0.9863410  0.7397010

 Al 
  0.2557992  0.2395216  0.5104302

 Al 
  0.9947577  0.5086122  0.4990149

 Al 
  0.0050851  0.7368336  0.7404448

 Al 
  0.2437973  0.5033860  0.7441401

 Al 
  0.2624177  0.7480558  0.4895079

 Al 
  0.4863509  0.5177528  0.9995273

 Al 
  0.5096493  0.7649003  0.2440894

 Al 
  0.7549960  0.5120501  0.2661886

 Al 
  0.7620625  0.7465596  0.0258960

 Al 
  0.5030692  0.9935647  0.4881541

 Al 
  0.5012722  0.2652554  0.7476078

 Al 
  0.7703270  0.9886342  0.7515643

 Al 
  0.7573957  0.2282313  0.5049416

 Al 
  0.5074526  0.4962403  0.5038699

 Al 
  0.4757809  0.7651490  0.7407777

 Al 
  0.7480991  0.4980385  0.7726919

 Al 
  0.7476177  0.7550666  0.5049045

