32 
charge = 0 
 Al 
  0.9973269  0.0184137  0.0090194

 Al 
  0.0168049  0.2319823  0.2641924

 Al 
  0.2542461  0.0097347  0.2310430

 Al 
  0.2463876  0.2510408  0.9907183

 Al 
  0.4873954  0.0162244  0.9888619

 Al 
  0.4886503  0.2453641  0.2408482

 Al 
  0.7462106  0.0001720  0.2415252

 Al 
  0.7470905  0.2396193  0.0301866

 Al 
  0.0055975  0.4936563  0.0060579

 Al 
  0.0088325  0.7547312  0.2253292

 Al 
  0.2393409  0.4943283  0.2589575

 Al 
  0.2504047  0.7719841  0.9924026

 Al 
  0.9925511  0.9772090  0.4892567

 Al 
  0.0052151  0.2426699  0.7603708

 Al 
  0.2279318  0.9866281  0.7397876

 Al 
  0.2554577  0.2386516  0.5106220

 Al 
  0.9952193  0.5094067  0.5007586

 Al 
  0.0049849  0.7373632  0.7411428

 Al 
  0.2439100  0.5027511  0.7419237

 Al 
  0.2626900  0.7479667  0.4877073

 Al 
  0.4847508  0.5187317  0.9985446

 Al 
  0.5095032  0.7645203  0.2440857

 Al 
  0.7544800  0.5130080  0.2653124

 Al 
  0.7608361  0.7460509  0.0250668

 Al 
  0.5032078  0.9936872  0.4878781

 Al 
  0.5033340  0.2642778  0.7472637

 Al 
  0.7709853  0.9887889  0.7515692

 Al 
  0.7581283  0.2280469  0.5059539

 Al 
  0.5070492  0.4961314  0.5046285

 Al 
  0.4758725  0.7643260  0.7402703

 Al 
  0.7476325  0.4980979  0.7741857

 Al 
  0.7479716  0.7544342  0.5045295

