32 
charge = 0 
 Al 
  0.9986226  0.0192119  0.0111455

 Al 
  0.0163569  0.2338337  0.2665177

 Al 
  0.2537387  0.0082075  0.2306940

 Al 
  0.2450980  0.2496263  0.9889028

 Al 
  0.4891317  0.0162851  0.9870501

 Al 
  0.4894065  0.2453282  0.2436563

 Al 
  0.7452205  0.0013019  0.2435721

 Al 
  0.7495310  0.2389498  0.0300183

 Al 
  0.0064960  0.4946772  0.0073511

 Al 
  0.0076667  0.7567497  0.2258935

 Al 
  0.2405735  0.4946574  0.2585491

 Al 
  0.2495582  0.7720286  0.9918259

 Al 
  0.9908470  0.9782016  0.4880006

 Al 
  0.0054304  0.2408606  0.7603819

 Al 
  0.2269529  0.9874363  0.7399250

 Al 
  0.2547052  0.2369945  0.5108732

 Al 
  0.9961549  0.5107383  0.5041644

 Al 
  0.0046545  0.7385043  0.7427578

 Al 
  0.2441921  0.5014430  0.7376244

 Al 
  0.2629796  0.7478528  0.4839983

 Al 
  0.4816494  0.5206067  0.9967217

 Al 
  0.5089389  0.7635884  0.2440387

 Al 
  0.7534367  0.5145673  0.2634993

 Al 
  0.7582385  0.7451512  0.0228367

 Al 
  0.5034157  0.9941327  0.4875006

 Al 
  0.5073796  0.2620897  0.7466957

 Al 
  0.7719865  0.9891169  0.7517363

 Al 
  0.7595515  0.2279293  0.5079018

 Al 
  0.5062212  0.4959643  0.5059873

 Al 
  0.4764851  0.7626169  0.7393693

 Al 
  0.7467910  0.4982885  0.7769851

 Al 
  0.7485867  0.7530593  0.5038278

