32 
charge = 0 
 Al 
  0.0016200  0.0190300  0.0153916

 Al 
  0.0137394  0.2407950  0.2724630

 Al 
  0.2528340  0.0029689  0.2319081

 Al 
  0.2431018  0.2469828  0.9848077

 Al 
  0.4950398  0.0149163  0.9820850

 Al 
  0.4918977  0.2466945  0.2517994

 Al 
  0.7430325  0.0033402  0.2500408

 Al 
  0.7560269  0.2398978  0.0274269

 Al 
  0.0085491  0.4976028  0.0105230

 Al 
  0.0053017  0.7613942  0.2299911

 Al 
  0.2446810  0.4958158  0.2568412

 Al 
  0.2470001  0.7702143  0.9909633

 Al 
  0.9885167  0.9813041  0.4850725

 Al 
  0.0044416  0.2375687  0.7587434

 Al 
  0.2257165  0.9906069  0.7399225

 Al 
  0.2524541  0.2330590  0.5106777

 Al 
  0.9982897  0.5125241  0.5121813

 Al 
  0.0029801  0.7419670  0.7484122

 Al 
  0.2452948  0.4977563  0.7273662

 Al 
  0.2620501  0.7481486  0.4739666

 Al 
  0.4738738  0.5247364  0.9927182

 Al 
  0.5058500  0.7601356  0.2436055

 Al 
  0.7508118  0.5162616  0.2585973

 Al 
  0.7506881  0.7440337  0.0135476

 Al 
  0.5034837  0.9963900  0.4878595

 Al 
  0.5174793  0.2546780  0.7460163

 Al 
  0.7725583  0.9899869  0.7531607

 Al 
  0.7630860  0.2294602  0.5125118

 Al 
  0.5040877  0.4957737  0.5083956

 Al 
  0.4805579  0.7578944  0.7374722

 Al 
  0.7453468  0.4992674  0.7830875

 Al 
  0.7496089  0.7487959  0.5024442

