32 
charge = 0 
 Al 
  0.0003973  0.0195287  0.0137543

 Al 
  0.0151564  0.2373236  0.2698753

 Al 
  0.2531273  0.0054515  0.2309935

 Al 
  0.2436798  0.2479543  0.9864821

 Al 
  0.4921972  0.0158000  0.9842817

 Al 
  0.4907022  0.2458344  0.2480954

 Al 
  0.7439273  0.0026113  0.2470113

 Al 
  0.7531508  0.2389944  0.0289515

 Al 
  0.0076853  0.4962613  0.0091728

 Al 
  0.0062868  0.7594896  0.2277264

 Al 
  0.2427083  0.4952589  0.2577113

 Al 
  0.2481981  0.7713554  0.9912455

 Al 
  0.9891404  0.9798500  0.4862631

 Al 
  0.0051780  0.2387308  0.7597619

 Al 
  0.2259801  0.9890599  0.7399955

 Al 
  0.2534813  0.2347334  0.5109252

 Al 
  0.9974469  0.5120501  0.5088436

 Al 
  0.0038649  0.7403557  0.7456512

 Al 
  0.2447354  0.4994307  0.7316903

 Al 
  0.2627791  0.7478912  0.4784021

 Al 
  0.4772709  0.5230892  0.9943604

 Al 
  0.5074910  0.7618385  0.2438617

 Al 
  0.7519380  0.5159584  0.2607730

 Al 
  0.7541409  0.7442466  0.0182528

 Al 
  0.5035456  0.9952143  0.4874239

 Al 
  0.5131157  0.2582793  0.7461636

 Al 
  0.7726882  0.9896131  0.7523576

 Al 
  0.7615564  0.2284243  0.5105725

 Al 
  0.5050035  0.4958195  0.5075603

 Al 
  0.4783352  0.7600069  0.7382555

 Al 
  0.7458319  0.4987488  0.7806260

 Al 
  0.7492637  0.7507945  0.5029578

