32 
charge = 0 
 Al 
  0.0001225  0.0195473  0.0133694

 Al 
  0.0153965  0.2366875  0.2693320

 Al 
  0.2532115  0.0059366  0.2308797

 Al 
  0.2438654  0.2481944  0.9868558

 Al 
  0.4916551  0.0159250  0.9847384

 Al 
  0.4904745  0.2457069  0.2473491

 Al 
  0.7441265  0.0024256  0.2464173

 Al 
  0.7525568  0.2389040  0.0291916

 Al 
  0.0074984  0.4959940  0.0088832

 Al 
  0.0064947  0.7590639  0.2273477

 Al 
  0.2423333  0.4951525  0.2578672

 Al 
  0.2484308  0.7715249  0.9913222

 Al 
  0.9893532  0.9795654  0.4865341

 Al 
  0.0052683  0.2390315  0.7599141

 Al 
  0.2260952  0.9887654  0.7399968

 Al 
  0.2536879  0.2350911  0.5109438

 Al 
  0.9972489  0.5118893  0.5081097

 Al 
  0.0040184  0.7400389  0.7451339

 Al 
  0.2446352  0.4997673  0.7326271

 Al 
  0.2628645  0.7478652  0.4793228

 Al 
  0.4779776  0.5227105  0.9947230

 Al 
  0.5077756  0.7621553  0.2439001

 Al 
  0.7521781  0.5158061  0.2612210

 Al 
  0.7548314  0.7443518  0.0191067

 Al 
  0.5035394  0.9950052  0.4873930

 Al 
  0.5121949  0.2589550  0.7462254

 Al 
  0.7726363  0.9895327  0.7522264

 Al 
  0.7612346  0.2282857  0.5101517

 Al 
  0.5052002  0.4958356  0.5073400

 Al 
  0.4779590  0.7604388  0.7384251

 Al 
  0.7459643  0.4986585  0.7800691

 Al 
  0.7491721  0.7511843  0.5030840

