32 
charge = 0 
 Al 
  0.0018316  0.0188530  0.0156626

 Al 
  0.0134164  0.2415425  0.2729506

 Al 
  0.2528043  0.0024726  0.2321543

 Al 
  0.2430585  0.2468318  0.9845144

 Al 
  0.4956289  0.0146899  0.9816692

 Al 
  0.4921489  0.2469086  0.2525271

 Al 
  0.7428729  0.0034503  0.2506510

 Al 
  0.7565814  0.2401626  0.0270618

 Al 
  0.0087100  0.4978726  0.0107705

 Al 
  0.0051074  0.7617259  0.2305096

 Al 
  0.2450931  0.4959284  0.2566507

 Al 
  0.2467551  0.7699322  0.9909237

 Al 
  0.9884783  0.9815999  0.4848720

 Al 
  0.0042399  0.2374078  0.7584946

 Al 
  0.2257314  0.9909225  0.7398941

 Al 
  0.2522536  0.2327471  0.5105972

 Al 
  0.9984233  0.5125551  0.5127778

 Al 
  0.0027820  0.7422925  0.7489951

 Al 
  0.2454198  0.4974259  0.7265804

 Al 
  0.2618459  0.7482253  0.4731251

 Al 
  0.4732216  0.5250111  0.9924224

 Al 
  0.5054861  0.7597730  0.2435424

 Al 
  0.7506027  0.5162331  0.2581753

 Al 
  0.7500037  0.7440585  0.0125328

 Al 
  0.5034528  0.9966462  0.4880055

 Al 
  0.5182998  0.2539156  0.7460163

 Al 
  0.7724568  0.9900537  0.7533464

 Al 
  0.7633743  0.2297337  0.5128645

 Al 
  0.5039194  0.4957700  0.5085082

 Al 
  0.4810616  0.7574860  0.7373249

 Al 
  0.7452849  0.4993812  0.7835132

 Al 
  0.7496560  0.7483899  0.5023675

