32 
charge = 0 
 Al 
  0.0028538  0.0173110  0.0169051

 Al 
  0.0112408  0.2463480  0.2756138

 Al 
  0.2528328  0.9996151  0.2339971

 Al 
  0.2433295  0.2462069  0.9830417

 Al 
  0.4992451  0.0129944  0.9794057

 Al 
  0.4937392  0.2484407  0.2567422

 Al 
  0.7420487  0.0038760  0.2542560

 Al 
  0.7597359  0.2422491  0.0245347

 Al 
  0.0096022  0.4995050  0.0120873

 Al 
  0.0038426  0.7633112  0.2339859

 Al 
  0.2476536  0.4965992  0.2553933

 Al 
  0.2452280  0.7679496  0.9907616

 Al 
  0.9888223  0.9833907  0.4839934

 Al 
  0.0026979  0.2369338  0.7567410

 Al 
  0.2263230  0.9927751  0.7396676

 Al 
  0.2511113  0.2310183  0.5098955

 Al 
  0.9989345  0.5123348  0.5158420

 Al 
  0.0014702  0.7442552  0.7526608

 Al 
  0.2462737  0.4955027  0.7224618

 Al 
  0.2602334  0.7488738  0.4685362

 Al 
  0.4694953  0.5262140  0.9908396

 Al 
  0.5031323  0.7574798  0.2430635

 Al 
  0.7494691  0.5155042  0.2557373

 Al 
  0.7459742  0.7447255  0.0060777

 Al 
  0.5031360  0.9982699  0.4893087

 Al 
  0.5228392  0.2491040  0.7462168

 Al 
  0.7713467  0.9903965  0.7545790

 Al 
  0.7649658  0.2318338  0.5147258

 Al 
  0.5030593  0.4957787  0.5088077

 Al 
  0.4844154  0.7551705  0.7364611

 Al 
  0.7451512  0.5000866  0.7855663

 Al 
  0.7497983  0.7459470  0.5020915

