32 
charge = 0 
 Al 
  0.0027127  0.0176217  0.0167417

 Al 
  0.0116294  0.2455126  0.2752042

 Al 
  0.2528031  0.0000693  0.2336506

 Al 
  0.2432219  0.2462799  0.9832521

 Al 
  0.4986362  0.0133174  0.9797522

 Al 
  0.4934644  0.2481573  0.2560616

 Al 
  0.7421699  0.0038303  0.2536657

 Al 
  0.7592322  0.2418469  0.0249926

 Al 
  0.0094612  0.4992315  0.0118893

 Al 
  0.0040703  0.7630971  0.2333672

 Al 
  0.2472167  0.4964903  0.2556161

 Al 
  0.2454891  0.7683097  0.9907814

 Al 
  0.9886973  0.9830899  0.4840986

 Al 
  0.0029912  0.2369536  0.7570591

 Al 
  0.2261621  0.9924756  0.7397109

 Al 
  0.2512933  0.2312893  0.5100391

 Al 
  0.9988862  0.5124165  0.5153940

 Al 
  0.0017016  0.7439285  0.7520333

 Al 
  0.2461178  0.4958146  0.7230731

 Al 
  0.2605477  0.7487451  0.4692404

 Al 
  0.4700931  0.5260693  0.9910821

 Al 
  0.5035407  0.7578746  0.2431538

 Al 
  0.7496436  0.5156898  0.2561346

 Al 
  0.7466351  0.7445510  0.0071878

 Al 
  0.5032040  0.9979927  0.4890401

 Al 
  0.5221301  0.2499319  0.7461611

 Al 
  0.7715905  0.9903483  0.7543624

 Al 
  0.7647183  0.2314304  0.5144473

 Al 
  0.5031830  0.4957750  0.5088015

 Al 
  0.4838213  0.7555393  0.7366046

 Al 
  0.7451463  0.4999703  0.7852866

 Al 
  0.7497909  0.7463529  0.5021150

