32 
charge = 0 
 Al 
  0.0029825  0.0169794  0.0170511

 Al 
  0.0108423  0.2471957  0.2760099

 Al 
  0.2528724  0.9991721  0.2343584

 Al 
  0.2434632  0.2461438  0.9828437

 Al 
  0.4998552  0.0126541  0.9790728

 Al 
  0.4940189  0.2487340  0.2574130

 Al 
  0.7419336  0.0039119  0.2548413

 Al 
  0.7602322  0.2426699  0.0240632

 Al 
  0.0097396  0.4997797  0.0122766

 Al 
  0.0036075  0.7635030  0.2346171

 Al 
  0.2480942  0.4967056  0.2551668

 Al 
  0.2449644  0.7675783  0.9907443

 Al 
  0.9889746  0.9836926  0.4839067

 Al 
  0.0023910  0.2369375  0.7564143

 Al 
  0.2265086  0.9930684  0.7396255

 Al 
  0.2509331  0.2307559  0.5097396

 Al 
  0.9989654  0.5122358  0.5162665

 Al 
  0.0012326  0.7445820  0.7532932

 Al 
  0.2464346  0.4951945  0.7218826

 Al 
  0.2599017  0.7490112  0.4678617

 Al 
  0.4689075  0.5263341  0.9906032

 Al 
  0.5027202  0.7570813  0.2429669

 Al 
  0.7492995  0.5152963  0.2553438

 Al 
  0.7453171  0.7449272  0.0049564

 Al 
  0.5030630  0.9985483  0.4895983

 Al 
  0.5235285  0.2482687  0.7462811

 Al 
  0.7710806  0.9904423  0.7547993

 Al 
  0.7652047  0.2322583  0.5149918

 Al 
  0.5029429  0.4957824  0.5087954

 Al 
  0.4850218  0.7548104  0.7363175

 Al 
  0.7451673  0.5002017  0.7858200

 Al 
  0.7498008  0.7455435  0.5020766

