32 
charge = 0 
 Al 
  0.0030989  0.0166304  0.0171798

 Al 
  0.0104351  0.2480558  0.2763898

 Al 
  0.2529206  0.9987439  0.2347334

 Al 
  0.2436216  0.2460930  0.9826605

 Al 
  0.5004653  0.0122989  0.9787535

 Al 
  0.4943023  0.2490359  0.2580726

 Al 
  0.7418234  0.0039392  0.2554180

 Al 
  0.7607185  0.2431093  0.0235793

 Al 
  0.0098745  0.5000557  0.0124573

 Al 
  0.0033625  0.7636726  0.2352631

 Al 
  0.2485360  0.4968108  0.2549366

 Al 
  0.2446995  0.7671984  0.9907294

 Al 
  0.9891515  0.9839946  0.4838374

 Al 
  0.0020729  0.2369635  0.7560801

 Al 
  0.2267190  0.9933568  0.7395834

 Al 
  0.2507586  0.2304997  0.5095738

 Al 
  0.9989802  0.5121207  0.5166638

 Al 
  0.0009913  0.7449074  0.7539305

 Al 
  0.2466017  0.4948901  0.7213343

 Al 
  0.2595527  0.7491560  0.4672145

 Al 
  0.4683295  0.5264281  0.9903742

 Al 
  0.5023056  0.7566779  0.2428679

 Al 
  0.7491362  0.5150648  0.2549527

 Al 
  0.7446661  0.7451549  0.0038265

 Al 
  0.5029838  0.9988268  0.4899089

 Al 
  0.5241981  0.2474259  0.7463541

 Al 
  0.7707910  0.9904856  0.7550233

 Al 
  0.7654361  0.2327051  0.5152455

 Al 
  0.5028340  0.4957873  0.5087644

 Al 
  0.4856406  0.7544577  0.7361740

 Al 
  0.7451933  0.5003131  0.7860465

 Al 
  0.7497983  0.7451426  0.5020704

