32 
charge = 0 
 Al 
  0.0023959  0.0181810  0.0163631

 Al 
  0.0123769  0.2438815  0.2743416

 Al 
  0.2527734  0.0010086  0.2330008

 Al 
  0.2430808  0.2464630  0.9837149

 Al 
  0.4974234  0.0139152  0.9804836

 Al 
  0.4929261  0.2476239  0.2546718

 Al 
  0.7424323  0.0037102  0.2524702

 Al 
  0.7581964  0.2411044  0.0258675

 Al 
  0.0091716  0.4986857  0.0114660

 Al 
  0.0045023  0.7626083  0.2321754

 Al 
  0.2463554  0.4962675  0.2560455

 Al 
  0.2460027  0.7689978  0.9908284

 Al 
  0.9885278  0.9824910  0.4843597

 Al 
  0.0035370  0.2370638  0.7576667

 Al 
  0.2259158  0.9918630  0.7397913

 Al 
  0.2516682  0.2318511  0.5102940

 Al 
  0.9987451  0.5125278  0.5144226

 Al 
  0.0021509  0.7432738  0.7507958

 Al 
  0.2458232  0.4964494  0.7243886

 Al 
  0.2611207  0.7485112  0.4707242

 Al 
  0.4713170  0.5257116  0.9915920

 Al 
  0.5043401  0.7586506  0.2433234

 Al 
  0.7500099  0.5159856  0.2569390

 Al 
  0.7479692  0.7442787  0.0093733

 Al 
  0.5033216  0.9974444  0.4885649

 Al 
  0.5206537  0.2515581  0.7460769

 Al 
  0.7720076  0.9902393  0.7539404

 Al 
  0.7642010  0.2306866  0.5138508

 Al 
  0.5034565  0.4957700  0.5087384

 Al 
  0.4826729  0.7562980  0.7368905

 Al 
  0.7451686  0.4997339  0.7846505

 Al 
  0.7497562  0.7471672  0.5021892

