32 
charge = 0 
 Al 
  0.0035097  0.0146329  0.0175771

 Al 
  0.0082793  0.2525011  0.2780382

 Al 
  0.2532956  0.9968467  0.2367779

 Al 
  0.2447762  0.2459792  0.9819440

 Al 
  0.5035060  0.0102730  0.9773897

 Al 
  0.4957960  0.2506745  0.2611962

 Al 
  0.7413618  0.0039565  0.2581865

 Al 
  0.7630043  0.2455510  0.0210113

 Al 
  0.0105044  0.5014479  0.0132159

 Al 
  0.0019702  0.7641701  0.2386652

 Al 
  0.2507784  0.4972910  0.2537313

 Al 
  0.2433246  0.7651886  0.9906663

 Al 
  0.9904163  0.9855230  0.4837842

 Al 
  0.0003366  0.2374387  0.7543302

 Al 
  0.2281545  0.9946772  0.7394015

 Al 
  0.2499530  0.2293426  0.5085602

 Al 
  0.9987909  0.5113262  0.5182837

 Al 
  0.9997265  0.7465200  0.7571655

 Al 
  0.2475274  0.4934471  0.7190981

 Al 
  0.2575491  0.7499802  0.4644584

 Al 
  0.4656230  0.5264975  0.9892963

 Al 
  0.5002203  0.7546149  0.2423110

 Al 
  0.7483924  0.5135959  0.2530357

 Al 
  0.7414707  0.7466858  0.9981053

 Al 
  0.5025184  0.0001906  0.4917516

 Al 
  0.5272388  0.2431464  0.7468368

 Al 
  0.7690201  0.9906527  0.7561519

 Al 
  0.7664546  0.2352557  0.5163024

 Al 
  0.5024380  0.4958034  0.5083548

 Al 
  0.4888916  0.7528105  0.7354401

 Al 
  0.7454656  0.5008032  0.7867618

 Al 
  0.7497042  0.7431761  0.5021707

