32 
charge = 0 
 Al 
  0.0036409  0.0118051  0.0175449

 Al 
  0.0054824  0.2580664  0.2793810

 Al 
  0.2540159  0.9952762  0.2394745

 Al 
  0.2468974  0.2461190  0.9814997

 Al 
  0.5070207  0.0073165  0.9763675

 Al 
  0.4977761  0.2528476  0.2644807

 Al 
  0.7409782  0.0037634  0.2611628

 Al 
  0.7653953  0.2488738  0.0177058

 Al 
  0.0111702  0.5031508  0.0137679

 Al 
  0.9998428  0.7639226  0.2430300

 Al 
  0.2534689  0.4977303  0.2522289

 Al 
  0.2415747  0.7626454  0.9905821

 Al 
  0.9926872  0.9874140  0.4844265

 Al 
  0.9980966  0.2387159  0.7521917

 Al 
  0.2306915  0.9959247  0.7393273

 Al 
  0.2491523  0.2282795  0.5069427

 Al 
  0.9979692  0.5099859  0.5194310

 Al 
  0.9981536  0.7483825  0.7610415

 Al 
  0.2488367  0.4919187  0.7175882

 Al 
  0.2546334  0.7511126  0.4623930

 Al 
  0.4628855  0.5255928  0.9880724

 Al 
  0.4978392  0.7520816  0.2415561

 Al 
  0.7476363  0.5112705  0.2507908

 Al 
  0.7377815  0.7493292  0.9913408

 Al 
  0.5018390  0.0016596  0.4945535

 Al 
  0.5301359  0.2380612  0.7476561

 Al 
  0.7662690  0.9907851  0.7574019

 Al 
  0.7672949  0.2390030  0.5170722

 Al 
  0.5023155  0.4957960  0.5073128

 Al 
  0.4930226  0.7510841  0.7345119

 Al 
  0.7460547  0.5011361  0.7866306

 Al 
  0.7494381  0.7409509  0.5025358

