32 
charge = 0 
 Al 
  0.0036397  0.0127890  0.0176155

 Al 
  0.0064353  0.2561928  0.2790171

 Al 
  0.2537449  0.9957007  0.2385600

 Al 
  0.2461079  0.2460423  0.9815999

 Al 
  0.5058772  0.0083622  0.9766224

 Al 
  0.4970905  0.2521051  0.2634486

 Al 
  0.7410871  0.0038501  0.2602186

 Al 
  0.7646441  0.2477315  0.0188246

 Al 
  0.0109599  0.5025791  0.0136305

 Al 
  0.0006163  0.7641119  0.2415512

 Al 
  0.2525791  0.4976041  0.2527301

 Al 
  0.2421687  0.7634993  0.9906143

 Al 
  0.9918482  0.9867742  0.4841196

 Al 
  0.9988466  0.2382097  0.7528959

 Al 
  0.2297498  0.9955572  0.7393285

 Al 
  0.2493973  0.2285889  0.5075293

 Al 
  0.9983144  0.5104698  0.5191426

 Al 
  0.9986783  0.7477736  0.7597607

 Al 
  0.2483763  0.4924001  0.7179447

 Al 
  0.2556594  0.7507252  0.4629127

 Al 
  0.4637233  0.5260222  0.9884808

 Al 
  0.4986040  0.7529281  0.2418135

 Al 
  0.7478751  0.5121009  0.2515333

 Al 
  0.7389919  0.7483602  0.9935560

 Al 
  0.5020766  0.0012004  0.4935548

 Al 
  0.5292684  0.2397295  0.7473566

 Al 
  0.7672504  0.9907455  0.7570120

 Al 
  0.7670697  0.2376726  0.5168804

 Al 
  0.5023093  0.4958034  0.5077249

 Al 
  0.4916316  0.7516299  0.7348300

 Al 
  0.7458307  0.5010655  0.7868002

 Al 
  0.7495446  0.7416724  0.5023897

