32 
charge = 0 
 Al 
  0.0034503  0.0150624  0.0175301

 Al 
  0.0087248  0.2515952  0.2777449

 Al 
  0.2532040  0.9971883  0.2363497

 Al 
  0.2444978  0.2459841  0.9820615

 Al 
  0.5029021  0.0107111  0.9776286

 Al 
  0.4954878  0.2503317  0.2605972

 Al 
  0.7414435  0.0039676  0.2576506

 Al 
  0.7625674  0.2450337  0.0215423

 Al 
  0.0103844  0.5011670  0.0130847

 Al 
  0.0022734  0.7641194  0.2379635

 Al 
  0.2503280  0.4972019  0.2539775

 Al 
  0.2436055  0.7656032  0.9906787

 Al 
  0.9901156  0.9852148  0.4837545

 Al 
  0.0006992  0.2372989  0.7546879

 Al 
  0.2278167  0.9944310  0.7394312

 Al 
  0.2501052  0.2295567  0.5087867

 Al 
  0.9988639  0.5115118  0.5180090

 Al 
  0.9999851  0.7462007  0.7565145

 Al 
  0.2473293  0.4937243  0.7194755

 Al 
  0.2579835  0.7498045  0.4649423

 Al 
  0.4661378  0.5265408  0.9895042

 Al 
  0.5006361  0.7550332  0.2424286

 Al 
  0.7485310  0.5139288  0.2534157

 Al 
  0.7421019  0.7463282  0.9992525

 Al 
  0.5026199  0.9999245  0.4913457

 Al 
  0.5266732  0.2440065  0.7467242

 Al 
  0.7694161  0.9906255  0.7559279

 Al 
  0.7662715  0.2347025  0.5161193

 Al 
  0.5024974  0.4958022  0.5084711

 Al 
  0.4882234  0.7531236  0.7355898

 Al 
  0.7453926  0.5007178  0.7866764

 Al 
  0.7497327  0.7435622  0.5021348

