32 
charge = 0 
 Al 
  0.0035617  0.0102767  0.0173333

 Al 
  0.0040233  0.2608905  0.2797584

 Al 
  0.2544787  0.9948394  0.2408519

 Al 
  0.2482191  0.2462824  0.9814328

 Al 
  0.5086605  0.0056420  0.9761695

 Al 
  0.4988577  0.2539800  0.2658990

 Al 
  0.7408495  0.0035964  0.2624796

 Al 
  0.7664286  0.2506262  0.0160128

 Al 
  0.0114598  0.5040134  0.0138793

 Al 
  0.9985483  0.7634337  0.2452663

 Al 
  0.2547745  0.4978739  0.2514900

 Al 
  0.2406700  0.7613695  0.9905203

 Al 
  0.9940807  0.9883941  0.4850676

 Al 
  0.9969927  0.2396070  0.7511769

 Al 
  0.2322756  0.9963739  0.7393755

 Al 
  0.2488342  0.2279120  0.5059750

 Al 
  0.9973244  0.5092087  0.5196921

 Al 
  0.9973776  0.7492698  0.7629140

 Al 
  0.2495669  0.4912603  0.7173321

 Al 
  0.2530122  0.7516979  0.4619648

 Al 
  0.4617952  0.5247005  0.9874474

 Al 
  0.4967700  0.7508168  0.2411675

 Al 
  0.7472972  0.5099500  0.2496869

 Al 
  0.7360106  0.7509183  0.9881429

 Al 
  0.5014677  0.0022709  0.4961561

 Al 
  0.5312410  0.2356517  0.7481536

 Al 
  0.7647060  0.9908507  0.7579043

 Al 
  0.7675115  0.2411378  0.5172256

 Al 
  0.5024170  0.4957737  0.5065851

 Al 
  0.4951092  0.7503131  0.7340132

 Al 
  0.7464296  0.5011546  0.7861343

 Al 
  0.7492500  0.7399151  0.5027907

