32 
charge = 0 
 Al 
  0.0033909  0.0087063  0.0169979

 Al 
  0.0025395  0.2637072  0.2799255

 Al 
  0.2550035  0.9946587  0.2422071

 Al 
  0.2496844  0.2464927  0.9814626

 Al 
  0.5101752  0.0038575  0.9762178

 Al 
  0.5000074  0.2551111  0.2671501

 Al 
  0.7407591  0.0033946  0.2636714

 Al 
  0.7673407  0.2523910  0.0143174

 Al 
  0.0117123  0.5048772  0.0138743

 Al 
  0.9970843  0.7626962  0.2475026

 Al 
  0.2560245  0.4979568  0.2507809

 Al 
  0.2397592  0.7601208  0.9904423

 Al 
  0.9956116  0.9894040  0.4859363

 Al 
  0.9959470  0.2406354  0.7502376

 Al 
  0.2340515  0.9966908  0.7394919

 Al 
  0.2485743  0.2276731  0.5049094

 Al 
  0.9965423  0.5083956  0.5197552

 Al 
  0.9966264  0.7501188  0.7647022

 Al 
  0.2503416  0.4906861  0.7174038

 Al 
  0.2513168  0.7522722  0.4619895

 Al 
  0.4609363  0.5235038  0.9867915

 Al 
  0.4958208  0.7495743  0.2407863

 Al 
  0.7469729  0.5085676  0.2485978

 Al 
  0.7343052  0.7526298  0.9851530

 Al 
  0.5010866  0.0027709  0.4978627

 Al 
  0.5320949  0.2334030  0.7487043

 Al 
  0.7630724  0.9909361  0.7582743

 Al 
  0.7675610  0.2434261  0.5172108

 Al 
  0.5026273  0.4957403  0.5057361

 Al 
  0.4971548  0.7495941  0.7334860

 Al 
  0.7468442  0.5010631  0.7853448

 Al 
  0.7490310  0.7389424  0.5030753

