32 
charge = 0 
 Al 
  0.0012314  0.0007153  0.0136342

 Al 
  0.9949681  0.2774318  0.2768761

 Al 
  0.2586209  0.9978900  0.2478442

 Al 
  0.2587966  0.2475162  0.9830293

 Al 
  0.5145042  0.9936736  0.9816370

 Al 
  0.5073090  0.2599834  0.2704693

 Al 
  0.7409608  0.0018898  0.2679583

 Al 
  0.7698988  0.2608584  0.0059168

 Al 
  0.0121776  0.5091097  0.0118360

 Al 
  0.9865279  0.7549342  0.2586605

 Al 
  0.2607359  0.4973071  0.2483021

 Al 
  0.2356109  0.7545332  0.9899411

 Al 
  0.0047213  0.9954346  0.4943159

 Al 
  0.9926947  0.2474358  0.7473751

 Al 
  0.2461240  0.9961747  0.7415140

 Al 
  0.2481164  0.2293426  0.4980942

 Al 
  0.9912814  0.5046322  0.5174645

 Al 
  0.9933704  0.7538080  0.7712180

 Al 
  0.2545740  0.4893854  0.7222959

 Al 
  0.2421279  0.7543278  0.4704866

 Al 
  0.4615885  0.5124474  0.9825429

 Al 
  0.4933543  0.7439174  0.2393260

 Al 
  0.7451500  0.5014380  0.2430697

 Al 
  0.7272944  0.7612544  0.9749332

 Al 
  0.4991139  0.0028216  0.5073994

 Al 
  0.5317212  0.2260952  0.7524516

 Al 
  0.7551483  0.9922863  0.7564254

 Al 
  0.7643792  0.2573499  0.5140698

 Al 
  0.5052337  0.4955200  0.4999468

 Al 
  0.5056284  0.7461858  0.7300765

 Al 
  0.7493936  0.4989369  0.7762759

 Al 
  0.7476424  0.7353633  0.5046149

