32 
charge = 0 
 Al 
  0.0026744  0.0050394  0.0157913

 Al 
  0.9990780  0.2700955  0.2794391

 Al 
  0.2564452  0.9952478  0.2450993

 Al 
  0.2535122  0.2470546  0.9818796

 Al 
  0.5129994  0.9994060  0.9774491

 Al 
  0.5029726  0.2575986  0.2693468

 Al 
  0.7407010  0.0028130  0.2659522

 Al 
  0.7689619  0.2563858  0.0104562

 Al 
  0.0121269  0.5068573  0.0133954

 Al 
  0.9929942  0.7600379  0.2526026

 Al 
  0.2585813  0.4979011  0.2493515

 Al 
  0.2377085  0.7574093  0.9902121

 Al 
  0.9995359  0.9919051  0.4888557

 Al 
  0.9939260  0.2434199  0.7484840

 Al 
  0.2388644  0.9968999  0.7400624

 Al 
  0.2481919  0.2277127  0.5021051

 Al 
  0.9943320  0.5065220  0.5192156

 Al 
  0.9950213  0.7519219  0.7683333

 Al 
  0.2522388  0.4897319  0.7187379

 Al 
  0.2472291  0.7534627  0.4639510

 Al 
  0.4600181  0.5195671  0.9850874

 Al 
  0.4941748  0.7468467  0.2399931

 Al 
  0.7462267  0.5052844  0.2461227

 Al 
  0.7307027  0.7567757  0.9793129

 Al 
  0.5001832  0.0033860  0.5020791

 Al 
  0.5330169  0.2290654  0.7501745

 Al 
  0.7592607  0.9912950  0.7583993

 Al 
  0.7669237  0.2492550  0.5164707

 Al 
  0.5035209  0.4956326  0.5033810

 Al 
  0.5015296  0.7480645  0.7321147

 Al 
  0.7479147  0.5004245  0.7823635

 Al 
  0.7484345  0.7369833  0.5037820

