32 
charge = 0 
 Al 
  0.0017672  0.0020766  0.0144003

 Al 
  0.9962650  0.2751423  0.2779788

 Al 
  0.2578684  0.9968046  0.2470756

 Al 
  0.2570294  0.2474271  0.9825788

 Al 
  0.5143174  0.9955262  0.9799057

 Al 
  0.5058141  0.2593325  0.2703257

 Al 
  0.7408284  0.0022177  0.2673902

 Al 
  0.7697366  0.2594785  0.0073635

 Al 
  0.0122321  0.5084204  0.0124709

 Al 
  0.9888050  0.7568128  0.2567187

 Al 
  0.2601839  0.4975657  0.2485310

 Al 
  0.2362012  0.7554081  0.9900129

 Al 
  0.0030296  0.9942218  0.4923073

 Al 
  0.9929001  0.2460658  0.7475905

 Al 
  0.2435993  0.9965237  0.7409336

 Al 
  0.2480917  0.2285704  0.4994542

 Al 
  0.9922714  0.5051606  0.5181451

 Al 
  0.9938642  0.7532387  0.7705361

 Al 
  0.2538352  0.4893904  0.7209334

 Al 
  0.2437751  0.7541520  0.4678246

 Al 
  0.4606851  0.5150376  0.9834216

 Al 
  0.4934669  0.7448097  0.2394919

 Al 
  0.7455349  0.5026286  0.2440733

 Al 
  0.7282338  0.7599735  0.9759492

 Al 
  0.4994456  0.0031892  0.5056928

 Al 
  0.5324835  0.2267078  0.7516422

 Al 
  0.7563635  0.9918754  0.7573907

 Al 
  0.7654473  0.2546186  0.5150413

 Al 
  0.5046248  0.4955460  0.5011076

 Al 
  0.5045060  0.7468207  0.7307794

 Al 
  0.7488973  0.4994901  0.7785728

 Al 
  0.7478961  0.7357668  0.5043612

