32 
charge = 0 
 Al 
  0.0020952  0.0030345  0.0148904

 Al 
  0.9971759  0.2735211  0.2785753

 Al 
  0.2573783  0.9961883  0.2464791

 Al 
  0.2558475  0.2473269  0.9823140

 Al 
  0.5140117  0.9968046  0.9789367

 Al 
  0.5048401  0.2588114  0.2700980

 Al 
  0.7407665  0.0024256  0.2669583

 Al 
  0.7695448  0.2584922  0.0083659

 Al 
  0.0122259  0.5079216  0.0128310

 Al 
  0.9902629  0.7579736  0.2553797

 Al 
  0.2597198  0.4977056  0.2487538

 Al 
  0.2366628  0.7560393  0.9900735

 Al 
  0.0018712  0.9934323  0.4910673

 Al 
  0.9931563  0.2451661  0.7478207

 Al 
  0.2419682  0.9967007  0.7406007

 Al 
  0.2481028  0.2281880  0.5003539

 Al 
  0.9929546  0.5055740  0.5185523

 Al 
  0.9942255  0.7528254  0.7699173

 Al 
  0.2533167  0.4894547  0.7201141

 Al 
  0.2449087  0.7539676  0.4663111

 Al 
  0.4602990  0.5166526  0.9839946

 Al 
  0.4936290  0.7454520  0.2396354

 Al 
  0.7457762  0.5034813  0.2447490

 Al 
  0.7289775  0.7589835  0.9768799

 Al 
  0.4996832  0.0033340  0.5045072

 Al 
  0.5328053  0.2273328  0.7511311

 Al 
  0.7572682  0.9916477  0.7578585

 Al 
  0.7660388  0.2528068  0.5155970

 Al 
  0.5042325  0.4955708  0.5018799

 Al 
  0.5036137  0.7472353  0.7312386

 Al 
  0.7485669  0.4998329  0.7799589

 Al 
  0.7480744  0.7361158  0.5041755

