32 
charge = 0 
 Al 
  0.9993552  0.9973925  0.0113163

 Al 
  0.9918036  0.2828424  0.2721672

 Al 
  0.2608658  0.0019306  0.2491869

 Al 
  0.2637345  0.2472167  0.9847248

 Al 
  0.5129721  0.9890290  0.9885600

 Al 
  0.5117915  0.2607680  0.2694000

 Al 
  0.7416935  0.0008440  0.2692082

 Al 
  0.7694334  0.2641082  0.0020729

 Al 
  0.0115007  0.5105762  0.0092594

 Al 
  0.9794441  0.7487179  0.2638496

 Al 
  0.2613621  0.4962799  0.2484271

 Al 
  0.2349116  0.7523996  0.9900017

 Al 
  0.0090689  0.9991882  0.5010358

 Al 
  0.9934236  0.2515173  0.7476313

 Al 
  0.2539169  0.9947020  0.7438567

 Al 
  0.2485570  0.2331902  0.4942144

 Al 
  0.9889399  0.5038983  0.5151688

 Al 
  0.9922108  0.7550975  0.7712217

 Al 
  0.2563475  0.4899300  0.7269479

 Al 
  0.2377741  0.7539986  0.4807646

 Al 
  0.4666947  0.5039416  0.9800084

 Al 
  0.4938518  0.7417875  0.2392369

 Al 
  0.7437565  0.4988280  0.2401342

 Al 
  0.7260136  0.7630513  0.9746931

 Al 
  0.4984048  0.0007673  0.5116393

 Al 
  0.5275024  0.2267214  0.7551087

 Al 
  0.7527016  0.9940473  0.7517413

 Al 
  0.7600131  0.2651589  0.5103869

 Al 
  0.5068945  0.4955757  0.4966957

 Al 
  0.5072360  0.7441340  0.7280939

 Al 
  0.7507995  0.4972068  0.7681315

 Al 
  0.7470274  0.7351530  0.5051173

