32 
charge = 0 
 Al 
  0.9991288  0.9971115  0.0110762

 Al 
  0.9915388  0.2832706  0.2715348

 Al 
  0.2610972  0.0024132  0.2492488

 Al 
  0.2642171  0.2471251  0.9849401

 Al 
  0.5126182  0.9886318  0.9894448

 Al 
  0.5122593  0.2607321  0.2691426

 Al 
  0.7418086  0.0007277  0.2693122

 Al 
  0.7692936  0.2643718  0.0016967

 Al 
  0.0113769  0.5106703  0.0089166

 Al 
  0.9786830  0.7480187  0.2643483

 Al 
  0.2613398  0.4961549  0.2485124

 Al 
  0.2349562  0.7522078  0.9900426

 Al 
  0.0094525  0.9996027  0.5018031

 Al 
  0.9936253  0.2519504  0.7477365

 Al 
  0.2547646  0.9945151  0.7441698

 Al 
  0.2486436  0.2337570  0.4938295

 Al 
  0.9887679  0.5039033  0.5149126

 Al 
  0.9921105  0.7551978  0.7710249

 Al 
  0.2564898  0.4900327  0.7274801

 Al 
  0.2373645  0.7538785  0.4820504

 Al 
  0.4674744  0.5029825  0.9797609

 Al 
  0.4939694  0.7416031  0.2392703

 Al 
  0.7435746  0.4986535  0.2398161

 Al 
  0.7260297  0.7630303  0.9749134

 Al 
  0.4983615  0.0004703  0.5119957

 Al 
  0.5268774  0.2270123  0.7554106

 Al 
  0.7525444  0.9942874  0.7510866

 Al 
  0.7594451  0.2659386  0.5099339

 Al 
  0.5070331  0.4955968  0.4963789

 Al 
  0.5072447  0.7438926  0.7279132

 Al 
  0.7509368  0.4970299  0.7671551

 Al 
  0.7469742  0.7352309  0.5051433

