32 
charge = 0 
 Al 
  0.9995780  0.9976919  0.0115638

 Al 
  0.9920883  0.2823746  0.2727823

 Al 
  0.2606294  0.0014492  0.2491090

 Al 
  0.2632345  0.2472959  0.9845131

 Al 
  0.5132939  0.9894535  0.9876912

 Al 
  0.5113138  0.2607779  0.2696315

 Al 
  0.7415858  0.0009603  0.2690981

 Al 
  0.7695547  0.2638248  0.0024590

 Al 
  0.0116158  0.5104661  0.0095923

 Al 
  0.9802188  0.7494221  0.2633310

 Al 
  0.2613658  0.4964049  0.2483553

 Al 
  0.2348943  0.7526014  0.9899683

 Al 
  0.0086617  0.9987699  0.5002648

 Al 
  0.9932441  0.2510792  0.7475410

 Al 
  0.2530605  0.9948852  0.7435523

 Al 
  0.2484778  0.2326506  0.4946117

 Al 
  0.9891330  0.5039107  0.5154275

 Al 
  0.9923160  0.7549886  0.7713789

 Al 
  0.2561928  0.4898347  0.7264145

 Al 
  0.2382011  0.7541025  0.4794973

 Al 
  0.4659534  0.5049057  0.9802658

 Al 
  0.4937454  0.7419831  0.2392134

 Al 
  0.7439322  0.4990273  0.2404547

 Al 
  0.7260309  0.7630266  0.9745198

 Al 
  0.4984555  0.0010532  0.5112556

 Al 
  0.5281013  0.2264727  0.7548055

 Al 
  0.7528810  0.9938147  0.7523749

 Al 
  0.7605675  0.2643545  0.5108349

 Al 
  0.5067422  0.4955572  0.4970237

 Al 
  0.5071927  0.7443740  0.7282857

 Al 
  0.7506559  0.4973900  0.7691005

 Al 
  0.7470831  0.7350960  0.5050839

