32 
charge = 0 
 Al 
  0.0010408  0.0002846  0.0133731

 Al 
  0.9945572  0.2781508  0.2764529

 Al 
  0.2588758  0.9982885  0.2480657

 Al 
  0.2593795  0.2475274  0.9831939

 Al 
  0.5144894  0.9930808  0.9822855

 Al 
  0.5078140  0.2601616  0.2704631

 Al 
  0.7410165  0.0017771  0.2681291

 Al 
  0.7699173  0.2612890  0.0054527

 Al 
  0.0121417  0.5093213  0.0115984

 Al 
  0.9857495  0.7542770  0.2592879

 Al 
  0.2608819  0.4972081  0.2482563

 Al 
  0.2354475  0.7542597  0.9899250

 Al 
  0.0052671  0.9958455  0.4950200

 Al 
  0.9926761  0.2478949  0.7473368

 Al 
  0.2469816  0.9960386  0.7417294

 Al 
  0.2481375  0.2296557  0.4976424

 Al 
  0.9909683  0.5044849  0.5172232

 Al 
  0.9932169  0.7539837  0.7713739

 Al 
  0.2548079  0.4894065  0.7227798

 Al 
  0.2415957  0.7543575  0.4714717

 Al 
  0.4619784  0.5115440  0.9822484

 Al 
  0.4933506  0.7436402  0.2392839

 Al 
  0.7450139  0.5010693  0.2427380

 Al 
  0.7270333  0.7616158  0.9746980

 Al 
  0.4990112  0.0026595  0.5079452

 Al 
  0.5313932  0.2259814  0.7527313

 Al 
  0.7547844  0.9924434  0.7560344

 Al 
  0.7639758  0.2582570  0.5137110

 Al 
  0.5054378  0.4955163  0.4995619

 Al 
  0.5059403  0.7459705  0.7298401

 Al 
  0.7495582  0.4987439  0.7754554

 Al 
  0.7475620  0.7352631  0.5046916

