32 
charge = 0 
 Al 
  0.9975212  0.9957366  0.0095899

 Al 
  0.9902690  0.2851059  0.2667393

 Al 
  0.2624796  0.0056829  0.2492859

 Al 
  0.2669670  0.2462007  0.9865935

 Al 
  0.5093857  0.9866616  0.9958183

 Al 
  0.5151280  0.2597953  0.2666279

 Al 
  0.7427949  0.9999926  0.2698703

 Al 
  0.7678729  0.2655710  0.9993862

 Al 
  0.0102718  0.5109128  0.0062856

 Al 
  0.9738973  0.7434335  0.2672516

 Al 
  0.2607717  0.4952948  0.2493973

 Al 
  0.2359896  0.7510804  0.9905438

 Al 
  0.0114301  0.0023922  0.5069489

 Al 
  0.9956141  0.2547077  0.7488082

 Al 
  0.2602693  0.9932169  0.7465843

 Al 
  0.2494716  0.2383310  0.4915710

 Al 
  0.9882135  0.5043661  0.5132345

 Al 
  0.9915771  0.7556346  0.7686674

 Al 
  0.2571061  0.4908903  0.7310529

 Al 
  0.2350168  0.7526261  0.4912133

 Al 
  0.4738887  0.4966351  0.9783971

 Al 
  0.4949730  0.7406044  0.2397616

 Al 
  0.7421551  0.4981845  0.2376652

 Al 
  0.7269925  0.7616801  0.9775209

 Al 
  0.4982996  0.9982229  0.5136874

 Al 
  0.5219618  0.2300394  0.7573932

 Al 
  0.7519863  0.9961376  0.7461772

 Al 
  0.7552980  0.2705114  0.5067608

 Al 
  0.5075689  0.4958356  0.4945337

 Al 
  0.5064613  0.7421774  0.7270902

 Al 
  0.7517264  0.4960175  0.7603708

 Al 
  0.7466413  0.7363237  0.5051730

