32 
charge = 0 
 Al 
  0.9989010  0.9968516  0.0108410

 Al 
  0.9912937  0.2836580  0.2708851

 Al 
  0.2613212  0.0028959  0.2492946

 Al 
  0.2646800  0.2470224  0.9851616

 Al 
  0.5122321  0.9882630  0.9903421

 Al 
  0.5127160  0.2606715  0.2688567

 Al 
  0.7419299  0.0006138  0.2694099

 Al 
  0.7691364  0.2646131  0.0013329

 Al 
  0.0112433  0.5107495  0.0085639

 Al 
  0.9779355  0.7473256  0.2648297

 Al 
  0.2613027  0.4960287  0.2486090

 Al 
  0.2350267  0.7520234  0.9900908

 Al 
  0.0098114  0.0000149  0.5025679

 Al 
  0.9938506  0.2523749  0.7478565

 Al 
  0.2556000  0.9943283  0.7444916

 Al 
  0.2487377  0.2343473  0.4934570

 Al 
  0.9886169  0.5039243  0.5146589

 Al 
  0.9920177  0.7552881  0.7707898

 Al 
  0.2566185  0.4901403  0.7280098

 Al 
  0.2369722  0.7537424  0.4833511

 Al 
  0.4682924  0.5020308  0.9795258

 Al 
  0.4940944  0.7414299  0.2393112

 Al 
  0.7433877  0.4985050  0.2395005

 Al 
  0.7260767  0.7629647  0.9751770

 Al 
  0.4983281  0.0001658  0.5123261

 Al 
  0.5262289  0.2273427  0.7557114

 Al 
  0.7524083  0.9945349  0.7504133

 Al 
  0.7588671  0.2666910  0.5094785

 Al 
  0.5071581  0.4956203  0.4960745

 Al 
  0.5072224  0.7436488  0.7277449

 Al 
  0.7510705  0.4968603  0.7661749

 Al 
  0.7469222  0.7353275  0.5051643

