32 
charge = 0 
 Al 
  0.9964074  0.9953690  0.0087966

 Al 
  0.9899819  0.2851715  0.2631466

 Al 
  0.2631281  0.0077137  0.2490100

 Al 
  0.2681266  0.2453307  0.9879288

 Al 
  0.5066197  0.9860898  0.0002017

 Al 
  0.5165932  0.2584773  0.2642023

 Al 
  0.7436723  0.9995953  0.2700894

 Al 
  0.7664732  0.2657232  0.9980719

 Al 
  0.0092990  0.5106826  0.0042560

 Al 
  0.9713294  0.7407208  0.2685733

 Al 
  0.2600218  0.4947639  0.2501943

 Al 
  0.2374251  0.7504468  0.9911279

 Al 
  0.0120910  0.0042015  0.5101530

 Al 
  0.9975014  0.2563091  0.7498218

 Al 
  0.2635426  0.9923816  0.7484555

 Al 
  0.2502710  0.2420400  0.4905104

 Al 
  0.9885327  0.5050158  0.5122048

 Al 
  0.9913692  0.7556742  0.7661650

 Al 
  0.2571469  0.4915858  0.7333362

 Al 
  0.2339303  0.7514071  0.4974568

 Al 
  0.4791817  0.4927825  0.9779046

 Al 
  0.4957440  0.7401886  0.2403953

 Al 
  0.7410141  0.4986077  0.2362494

 Al 
  0.7284503  0.7596592  0.9801767

 Al 
  0.4984914  0.9966041  0.5140005

 Al 
  0.5181885  0.2329526  0.7585033

 Al 
  0.7520209  0.9975546  0.7426959

 Al 
  0.7524120  0.2726437  0.5046483

 Al 
  0.5074105  0.4961079  0.4936501

 Al 
  0.5051817  0.7409806  0.7271063

 Al 
  0.7520605  0.4956054  0.7558957

 Al 
  0.7463838  0.7376169  0.5050691

