32 
charge = 0 
 Al 
  0.9959779  0.9953492  0.0085454

 Al 
  0.9899955  0.2849327  0.2617160

 Al 
  0.2632976  0.0084266  0.2488627

 Al 
  0.2683865  0.2449644  0.9885030

 Al 
  0.5054911  0.9860279  0.0018539

 Al 
  0.5170227  0.2578301  0.2631182

 Al 
  0.7440572  0.9994753  0.2701314

 Al 
  0.7658482  0.2656255  0.9976165

 Al 
  0.0088845  0.5105131  0.0034280

 Al 
  0.9705398  0.7398012  0.2689062

 Al 
  0.2596678  0.4945832  0.2505136

 Al 
  0.2381318  0.7502129  0.9914138

 Al 
  0.0121999  0.0048785  0.5112952

 Al 
  0.9983293  0.2568586  0.7502599

 Al 
  0.2646713  0.9920883  0.7492154

 Al 
  0.2506299  0.2435758  0.4902245

 Al 
  0.9888149  0.5053067  0.5118348

 Al 
  0.9913234  0.7556321  0.7650351

 Al 
  0.2570813  0.4918667  0.7341815

 Al 
  0.2336295  0.7508750  0.4998032

 Al 
  0.4813883  0.4914460  0.9778340

 Al 
  0.4960336  0.7400809  0.2407109

 Al 
  0.7405401  0.4989258  0.2357173

 Al 
  0.7291718  0.7586766  0.9813462

 Al 
  0.4986090  0.9959891  0.5139275

 Al 
  0.5166823  0.2342149  0.7588374

 Al 
  0.7520977  0.9981288  0.7413829

 Al 
  0.7513291  0.2732191  0.5038624

 Al 
  0.5072150  0.4962378  0.4933939

 Al 
  0.5045542  0.7405153  0.7272709

 Al 
  0.7521397  0.4955188  0.7542436

 Al 
  0.7462588  0.7382283  0.5050121

