32 
charge = 0 
 Al 
  0.9949520  0.9955658  0.0080640

 Al 
  0.9902950  0.2837446  0.2582038

 Al 
  0.2634820  0.0099438  0.2484803

 Al 
  0.2685412  0.2440671  0.9900463

 Al 
  0.5027573  0.9862173  0.0056730

 Al 
  0.5177083  0.2559787  0.2601715

 Al 
  0.7451030  0.9992748  0.2701141

 Al 
  0.7641651  0.2650116  0.9966116

 Al 
  0.0078028  0.5099413  0.0013440

 Al 
  0.9691773  0.7379288  0.2692391

 Al 
  0.2586914  0.4942429  0.2512487

 Al 
  0.2401713  0.7496151  0.9922578

 Al 
  0.0121665  0.0064675  0.5137951

 Al 
  0.0005235  0.2580169  0.7513898

 Al 
  0.2670425  0.9914831  0.7511089

 Al 
  0.2516088  0.2474667  0.4898421

 Al 
  0.9898532  0.5060170  0.5109957

 Al 
  0.9912876  0.7554020  0.7619945

 Al 
  0.2567410  0.4925610  0.7361616

 Al 
  0.2331766  0.7494864  0.5052299

 Al 
  0.4870143  0.4886367  0.9779912

 Al 
  0.4966697  0.7399386  0.2416390

 Al 
  0.7393334  0.5000037  0.2344773

 Al 
  0.7312361  0.7559230  0.9844216

 Al 
  0.4989679  0.9945795  0.5132988

 Al 
  0.5130043  0.2374882  0.7593325

 Al 
  0.7523736  0.9995693  0.7383979

 Al 
  0.7488652  0.2740013  0.5020556

 Al 
  0.5064118  0.4966091  0.4929706

 Al 
  0.5027932  0.7393990  0.7280964

 Al 
  0.7522177  0.4954804  0.7504839

 Al 
  0.7458678  0.7399399  0.5048636

