32 
charge = 0 
 Al 
  0.9961908  0.9953505  0.0086667

 Al 
  0.9899795  0.2850700  0.2624301

 Al 
  0.2632196  0.0080776  0.2489382

 Al 
  0.2682714  0.2451475  0.9882135

 Al 
  0.5060542  0.9860477  0.0010358

 Al 
  0.5168197  0.2581605  0.2636676

 Al 
  0.7438617  0.9995322  0.2701141

 Al 
  0.7661638  0.2656849  0.9978405

 Al 
  0.0090936  0.5106022  0.0038426

 Al 
  0.9709173  0.7402492  0.2687540

 Al 
  0.2598485  0.4946711  0.2503552

 Al 
  0.2377704  0.7503292  0.9912678

 Al 
  0.0121553  0.0045431  0.5107346

 Al 
  0.9979110  0.2565900  0.7500396

 Al 
  0.2641206  0.9922318  0.7488355

 Al 
  0.2504480  0.2428048  0.4903582

 Al 
  0.9886639  0.5051606  0.5120167

 Al 
  0.9913433  0.7556569  0.7656081

 Al 
  0.2571197  0.4917257  0.7337632

 Al 
  0.2337706  0.7511435  0.4986424

 Al 
  0.4802807  0.4920994  0.9778600

 Al 
  0.4958913  0.7401304  0.2405487

 Al 
  0.7407777  0.4987575  0.2359809

 Al 
  0.7288018  0.7591778  0.9807559

 Al 
  0.4985471  0.9962935  0.5139770

 Al 
  0.5174335  0.2335788  0.7586790

 Al 
  0.7520556  0.9978417  0.7420326

 Al 
  0.7518650  0.2729506  0.5042510

 Al 
  0.5073227  0.4961710  0.4935152

 Al 
  0.5048748  0.7407467  0.7271769

 Al 
  0.7521039  0.4955559  0.7550592

 Al 
  0.7463232  0.7379164  0.5050418

