32 
charge = 0 
 Al 
  0.9945572  0.9957428  0.0079192

 Al 
  0.9905042  0.2830528  0.2568326

 Al 
  0.2634535  0.0104463  0.2483491

 Al 
  0.2684125  0.2437330  0.9907121

 Al 
  0.5017338  0.9864054  0.0070677

 Al 
  0.5178320  0.2551631  0.2589080

 Al 
  0.7455534  0.9992352  0.2700535

 Al 
  0.7634498  0.2646230  0.9962465

 Al 
  0.0073536  0.5096666  0.0005037

 Al 
  0.9688790  0.7373459  0.2691748

 Al 
  0.2582768  0.4941599  0.2515024

 Al 
  0.2410809  0.7493552  0.9926464

 Al 
  0.0120576  0.0070690  0.5146552

 Al 
  0.0014380  0.2584018  0.7518477

 Al 
  0.2678197  0.9912987  0.7518588

 Al 
  0.2520308  0.2490273  0.4898173

 Al 
  0.9903866  0.5062720  0.5106876

 Al 
  0.9912987  0.7552671  0.7607136

 Al 
  0.2565455  0.4928333  0.7369165

 Al 
  0.2331036  0.7489246  0.5072212

 Al 
  0.4892889  0.4877246  0.9781929

 Al 
  0.4968838  0.7399238  0.2420660

 Al 
  0.7388471  0.5005235  0.2340169

 Al 
  0.7321482  0.7547362  0.9856888

 Al 
  0.4991238  0.9940721  0.5128843

 Al 
  0.5115786  0.2388174  0.7593795

 Al 
  0.7524962  0.0001473  0.7373422

 Al 
  0.7479852  0.2740669  0.5013898

 Al 
  0.5059675  0.4967737  0.4928778

 Al 
  0.5020358  0.7389708  0.7285976

 Al 
  0.7522066  0.4955324  0.7491238

 Al 
  0.7456760  0.7406873  0.5048055

