32 
charge = 0 
 Al 
  0.9939768  0.9960893  0.0077410

 Al 
  0.9908965  0.2818016  0.2548166

 Al 
  0.2632914  0.0110935  0.2482068

 Al 
  0.2680239  0.2432776  0.9917640

 Al 
  0.5003057  0.9867878  0.0090169

 Al 
  0.5178655  0.2538723  0.2569279

 Al 
  0.7462663  0.9992179  0.2699025

 Al 
  0.7623348  0.2638879  0.9957242

 Al 
  0.0066643  0.5092186  0.9992339

 Al 
  0.9686959  0.7366418  0.2688728

 Al 
  0.2576345  0.4941018  0.2518242

 Al 
  0.2425350  0.7489246  0.9932862

 Al 
  0.0118224  0.0079452  0.5157987

 Al 
  0.0028427  0.2589018  0.7525345

 Al 
  0.2688159  0.9910871  0.7529714

 Al 
  0.2526917  0.2513601  0.4899102

 Al 
  0.9912987  0.5066024  0.5102433

 Al 
  0.9913383  0.7550245  0.7587434

 Al 
  0.2561990  0.4932355  0.7380340

 Al 
  0.2330974  0.7480867  0.5100181

 Al 
  0.4927120  0.4865786  0.9786483

 Al 
  0.4971524  0.7399423  0.2427652

 Al 
  0.7381169  0.5013712  0.2333647

 Al 
  0.7335912  0.7528947  0.9876145

 Al 
  0.4993528  0.9933778  0.5121009

 Al 
  0.5094909  0.2408074  0.7592706

 Al 
  0.7526731  0.0010222  0.7359203

 Al 
  0.7467811  0.2739221  0.5004430

 Al 
  0.5051755  0.4970385  0.4928122

 Al 
  0.5008663  0.7383496  0.7295394

 Al 
  0.7521509  0.4956735  0.7472241

 Al 
  0.7453443  0.7418667  0.5047263

