32 
charge = 0 
 Al 
  0.9930300  0.9968393  0.0075170

 Al 
  0.9917318  0.2791743  0.2515507

 Al 
  0.2626726  0.0118942  0.2481919

 Al 
  0.2668841  0.2426811  0.9936810

 Al 
  0.4982773  0.9876504  0.0118893

 Al 
  0.5175313  0.2515742  0.2533983

 Al 
  0.7475632  0.9992921  0.2694693

 Al 
  0.7603572  0.2622506  0.9948691

 Al 
  0.0054713  0.5084018  0.9970818

 Al 
  0.9690993  0.7359017  0.2678382

 Al 
  0.2565232  0.4942144  0.2521732

 Al 
  0.2451772  0.7480521  0.9945126

 Al 
  0.0113027  0.0093634  0.5173184

 Al 
  0.0052497  0.2595404  0.7536657

 Al 
  0.2700671  0.9909262  0.7547943

 Al 
  0.2538723  0.2552027  0.4903990

 Al 
  0.9930746  0.5069613  0.5095070

 Al 
  0.9914336  0.7545332  0.7553797

 Al 
  0.2555096  0.4938951  0.7399312

 Al 
  0.2333610  0.7467427  0.5141750

 Al 
  0.4984184  0.4852359  0.9798277

 Al 
  0.4974420  0.7400809  0.2441018

 Al 
  0.7369140  0.5028909  0.2324056

 Al 
  0.7361789  0.7497228  0.9908557

 Al 
  0.4996857  0.9923915  0.5104017

 Al 
  0.5061346  0.2440869  0.7585664

 Al 
  0.7529008  0.0025147  0.7340070

 Al 
  0.7450795  0.2730706  0.4989703

 Al 
  0.5035345  0.4975174  0.4928704

 Al 
  0.4988812  0.7373682  0.7316507

 Al 
  0.7519652  0.4960584  0.7443839

 Al 
  0.7446760  0.7439718  0.5046161

