32 
charge = 0 
 Al 
  0.9934063  0.9965175  0.0075986

 Al 
  0.9913730  0.2803054  0.2528439

 Al 
  0.2629758  0.0116145  0.2481573

 Al 
  0.2674125  0.2428914  0.9928890

 Al 
  0.4990310  0.9872741  0.0107965

 Al 
  0.5177219  0.2525135  0.2548438

 Al 
  0.7470261  0.9992476  0.2696711

 Al 
  0.7611665  0.2629684  0.9952131

 Al 
  0.0059552  0.5087372  0.9979494

 Al 
  0.9688308  0.7361343  0.2683308

 Al 
  0.2569737  0.4941352  0.2520643

 Al 
  0.2440894  0.7484283  0.9939966

 Al 
  0.0115242  0.0088003  0.5167677

 Al 
  0.0042783  0.2593127  0.7532164

 Al 
  0.2696253  0.9909608  0.7540703

 Al 
  0.2533884  0.2536743  0.4901540

 Al 
  0.9923296  0.5068499  0.5098052

 Al 
  0.9913928  0.7547411  0.7567336

 Al 
  0.2558005  0.4936327  0.7391602

 Al 
  0.2332137  0.7472687  0.5125872

 Al 
  0.4961376  0.4856888  0.9792931

 Al 
  0.4973516  0.7400092  0.2435399

 Al 
  0.7373905  0.5022734  0.2327682

 Al 
  0.7351171  0.7510024  0.9895574

 Al 
  0.4995631  0.9927603  0.5111381

 Al 
  0.5074600  0.2427825  0.7589303

 Al 
  0.7528241  0.0019108  0.7347025

 Al 
  0.7457156  0.2734988  0.4995458

 Al 
  0.5042374  0.4973207  0.4928234

 Al 
  0.4996770  0.7377518  0.7307225

 Al 
  0.7520519  0.4958839  0.7454755

 Al 
  0.7449594  0.7431093  0.5046569

