32 
charge = 0 
 Al 
  0.9943617  0.9958480  0.0078548

 Al 
  0.9906255  0.2826642  0.2561556

 Al 
  0.2634152  0.0106765  0.2482934

 Al 
  0.2683085  0.2435746  0.9910549

 Al 
  0.5012413  0.9865205  0.0077372

 Al 
  0.5178630  0.2547411  0.2582595

 Al 
  0.7457861  0.9992240  0.2700114

 Al 
  0.7630835  0.2643978  0.9960707

 Al 
  0.0071259  0.5095218  0.0000817

 Al 
  0.9687837  0.7370885  0.2691018

 Al 
  0.2580652  0.4941302  0.2516175

 Al 
  0.2415536  0.7492191  0.9928531

 Al 
  0.0119883  0.0073635  0.5150562

 Al 
  0.0019034  0.2585788  0.7520766

 Al 
  0.2681736  0.9912183  0.7522313

 Al 
  0.2522462  0.2498069  0.4898309

 Al 
  0.9906762  0.5063895  0.5105378

 Al 
  0.9913098  0.7551916  0.7600626

 Al 
  0.2564366  0.4929682  0.7372902

 Al 
  0.2330875  0.7486436  0.5081791

 Al 
  0.4904287  0.4873137  0.9783241

 Al 
  0.4969803  0.7399250  0.2422912

 Al 
  0.7386033  0.5007982  0.2337941

 Al 
  0.7326197  0.7541297  0.9863286

 Al 
  0.4992005  0.9938320  0.5126442

 Al 
  0.5108757  0.2394820  0.7593683

 Al 
  0.7525568  0.0004381  0.7368459

 Al 
  0.7475682  0.2740508  0.5010680

 Al 
  0.5057200  0.4968603  0.4928469

 Al 
  0.5016497  0.7387605  0.7288859

 Al 
  0.7521930  0.4955720  0.7484728

 Al 
  0.7455708  0.7410735  0.5047782

