32 
charge = 0 
 Al 
  0.9935956  0.9963665  0.0076432

 Al 
  0.9912059  0.2808314  0.2534961

 Al 
  0.2630984  0.0114549  0.2481622

 Al 
  0.2676402  0.2430102  0.9925053

 Al 
  0.4994369  0.9871021  0.0102223

 Al 
  0.5177887  0.2529726  0.2555505

 Al 
  0.7467675  0.9992327  0.2697577

 Al 
  0.7615613  0.2632964  0.9953827

 Al 
  0.0061928  0.5089005  0.9983800

 Al 
  0.9687503  0.7362816  0.2685374

 Al 
  0.2571964  0.4941129  0.2519937

 Al 
  0.2435610  0.7486016  0.9937528

 Al 
  0.0116294  0.0085169  0.5164645

 Al 
  0.0037968  0.2591852  0.7529900

 Al 
  0.2693753  0.9909930  0.7537053

 Al 
  0.2531521  0.2529058  0.4900562

 Al 
  0.9919732  0.5067781  0.5099512

 Al 
  0.9913730  0.7548401  0.7574068

 Al 
  0.2559378  0.4935003  0.7387815

 Al 
  0.2331617  0.7475385  0.5117556

 Al 
  0.4949965  0.4859574  0.9790567

 Al 
  0.4972935  0.7399807  0.2432738

 Al 
  0.7376318  0.5019677  0.2329600

 Al 
  0.7345998  0.7516373  0.9889090

 Al 
  0.4994963  0.9929570  0.5114784

 Al 
  0.5081308  0.2421266  0.7590701

 Al 
  0.7527771  0.0016125  0.7350849

 Al 
  0.7460559  0.2736696  0.4998391

 Al 
  0.5045654  0.4972241  0.4928110

 Al 
  0.5000743  0.7379486  0.7303005

 Al 
  0.7520890  0.4958071  0.7460423

 Al 
  0.7450931  0.7426885  0.5046792

