32 
charge = 0 
 Al 
  0.9928444  0.9970088  0.0074798

 Al 
  0.9919224  0.2785691  0.2509108

 Al 
  0.2624920  0.0120130  0.2482315

 Al 
  0.2665858  0.2425932  0.9940906

 Al 
  0.4979320  0.9878521  0.0124090

 Al 
  0.5174088  0.2510965  0.2526570

 Al 
  0.7478417  0.9993218  0.2693530

 Al 
  0.7599438  0.2618596  0.9946958

 Al 
  0.0052262  0.5082310  0.9966437

 Al 
  0.9692874  0.7358163  0.2675548

 Al 
  0.2562955  0.4942713  0.2522115

 Al 
  0.2457354  0.7478491  0.9947837

 Al 
  0.0111888  0.0096443  0.5175647

 Al 
  0.0057398  0.2596394  0.7538884

 Al 
  0.2702601  0.9909250  0.7551544

 Al 
  0.2541198  0.2559613  0.4905463

 Al 
  0.9934632  0.5069984  0.5093535

 Al 
  0.9914534  0.7544243  0.7547027

 Al 
  0.2553586  0.4940263  0.7403272

 Al 
  0.2334550  0.7464853  0.5149312

 Al 
  0.4995545  0.4850502  0.9801272

 Al 
  0.4974717  0.7401267  0.2443951

 Al 
  0.7366801  0.5032016  0.2322373

 Al 
  0.7367222  0.7490793  0.9915041

 Al 
  0.4997401  0.9922194  0.5100057

 Al 
  0.5054787  0.2447342  0.7583424

 Al 
  0.7529318  0.0028216  0.7336939

 Al 
  0.7447824  0.2728132  0.4986894

 Al 
  0.5031607  0.4976189  0.4929051

 Al 
  0.4984852  0.7371801  0.7321568

 Al 
  0.7519157  0.4961537  0.7438580

 Al 
  0.7445263  0.7444112  0.5045988

