32 
charge = 0 
 Al 
  0.9915858  0.9983033  0.0072410

 Al 
  0.9934620  0.2736387  0.2465423

 Al 
  0.2606232  0.0124449  0.2490223

 Al 
  0.2638731  0.2423469  0.9971994

 Al 
  0.4961660  0.9894832  0.0155128

 Al 
  0.5160264  0.2476462  0.2471920

 Al 
  0.7499740  0.9996362  0.2682318

 Al 
  0.7568883  0.2585206  0.9933865

 Al 
  0.0034627  0.5069910  0.9935313

 Al 
  0.9716450  0.7357903  0.2648916

 Al 
  0.2546260  0.4950423  0.2521212

 Al 
  0.2498775  0.7461289  0.9969383

 Al 
  0.0103695  0.0116195  0.5187256

 Al 
  0.0092099  0.2600639  0.7553846

 Al 
  0.2710918  0.9912170  0.7576184

 Al 
  0.2559465  0.2611022  0.4920140

 Al 
  0.9964036  0.5068610  0.5081444

 Al 
  0.9915549  0.7535976  0.7500210

 Al 
  0.2542127  0.4949384  0.7433716

 Al 
  0.2345515  0.7448852  0.5194483

 Al 
  0.5073412  0.4844884  0.9827917

 Al 
  0.4973665  0.7406651  0.2467167

 Al 
  0.7351827  0.5052869  0.2313722

 Al 
  0.7407529  0.7446104  0.9959804

 Al 
  0.4999319  0.9912492  0.5067695

 Al 
  0.5010198  0.2491473  0.7559477

 Al 
  0.7529380  0.0050653  0.7321902

 Al 
  0.7430956  0.2702564  0.4968108

 Al 
  0.5001782  0.4983875  0.4933493

 Al 
  0.4958170  0.7359772  0.7365081

 Al 
  0.7514739  0.4969643  0.7405302

 Al 
  0.7433481  0.7476437  0.5044973

