32 
charge = 0 
 Al 
  0.9919336  0.9979234  0.0073090

 Al 
  0.9929892  0.2751658  0.2477674

 Al 
  0.2612692  0.0123967  0.2486968

 Al 
  0.2647542  0.2423444  0.9962700

 Al 
  0.4965472  0.9889832  0.0147233

 Al 
  0.5165116  0.2486436  0.2487971

 Al 
  0.7493305  0.9995297  0.2686092

 Al 
  0.7577867  0.2595800  0.9937812

 Al 
  0.0039751  0.5073511  0.9944273

 Al 
  0.9707849  0.7356963  0.2657678

 Al 
  0.2551161  0.4947540  0.2522140

 Al 
  0.2486597  0.7466734  0.9962749

 Al 
  0.0105997  0.0110527  0.5184966

 Al 
  0.0082149  0.2599933  0.7549725

 Al 
  0.2709470  0.9910784  0.7569254

 Al 
  0.2554131  0.2596728  0.4915190

 Al 
  0.9955324  0.5069774  0.5085206

 Al 
  0.9915363  0.7538402  0.7513353

 Al 
  0.2545530  0.4946785  0.7424434

 Al 
  0.2341580  0.7453010  0.5183023

 Al 
  0.5051606  0.4845206  0.9819341

 Al 
  0.4974580  0.7404683  0.2460064

 Al 
  0.7355762  0.5047201  0.2315517

 Al 
  0.7395636  0.7458690  0.9947218

 Al 
  0.4999146  0.9914856  0.5077707

 Al 
  0.5022697  0.2479110  0.7567794

 Al 
  0.7529776  0.0044070  0.7324959

 Al 
  0.7435090  0.2711165  0.4973331

 Al 
  0.5010878  0.4981573  0.4931885

 Al 
  0.4965522  0.7362977  0.7351220

 Al 
  0.7516150  0.4967118  0.7414212

 Al 
  0.7437045  0.7466969  0.5045221

