32 
charge = 0 
 Al 
  0.9914175  0.9984926  0.0072051

 Al 
  0.9937082  0.2728417  0.2459371

 Al 
  0.2602643  0.0124449  0.2492154

 Al 
  0.2634040  0.2423729  0.9976746

 Al 
  0.4960163  0.9897406  0.0158767

 Al 
  0.5157579  0.2471474  0.2463801

 Al 
  0.7503057  0.9996943  0.2680251

 Al 
  0.7564328  0.2579588  0.9931810

 Al 
  0.0032053  0.5068091  0.9930833

 Al 
  0.9721313  0.7358670  0.2644226

 Al 
  0.2543760  0.4952069  0.2520531

 Al 
  0.2504925  0.7458406  0.9972836

 Al 
  0.0102594  0.0119029  0.5188072

 Al 
  0.0097050  0.2600837  0.7555851

 Al 
  0.2711363  0.9913036  0.7579600

 Al 
  0.2562150  0.2618014  0.4922838

 Al 
  0.9968455  0.5067781  0.5079439

 Al 
  0.9915598  0.7534751  0.7493763

 Al 
  0.2540406  0.4950696  0.7438555

 Al 
  0.2347730  0.7446946  0.5199730

 Al 
  0.5084105  0.4845107  0.9832471

 Al 
  0.4972996  0.7407789  0.2470855

 Al 
  0.7350020  0.5055554  0.2313066

 Al 
  0.7413569  0.7439916  0.9965979

 Al 
  0.4999270  0.9911428  0.5062497

 Al 
  0.5004034  0.2497562  0.7554898

 Al 
  0.7529033  0.0053995  0.7320764

 Al 
  0.7429100  0.2697911  0.4965534

 Al 
  0.4997104  0.4985063  0.4934384

 Al 
  0.4954631  0.7358250  0.7372420

 Al 
  0.7513997  0.4970942  0.7401020

 Al 
  0.7431674  0.7481214  0.5044849

