32 
charge = 0 
 Al 
  0.9910920  0.9988652  0.0071296

 Al 
  0.9942144  0.2711920  0.2447465

 Al 
  0.2594748  0.0123967  0.2496683

 Al 
  0.2624103  0.2424744  0.9986449

 Al 
  0.4957972  0.9902678  0.0165388

 Al 
  0.5151713  0.2461574  0.2447490

 Al 
  0.7509851  0.9998156  0.2675759

 Al 
  0.7555171  0.2567794  0.9927541

 Al 
  0.0026880  0.5064440  0.9921922

 Al 
  0.9732154  0.7360787  0.2634251

 Al 
  0.2538699  0.4955782  0.2518749

 Al 
  0.2517326  0.7452354  0.9980013

 Al 
  0.0100490  0.0124722  0.5189075

 Al 
  0.0106876  0.2600911  0.7559688

 Al 
  0.2711685  0.9915091  0.7586332

 Al 
  0.2567509  0.2631602  0.4928617

 Al 
  0.9977340  0.5065603  0.5075170

 Al 
  0.9915586  0.7532338  0.7481189

 Al 
  0.2536904  0.4953294  0.7448654

 Al 
  0.2352693  0.7443456  0.5209247

 Al 
  0.5104958  0.4846270  0.9842038

 Al 
  0.4971289  0.7410351  0.2478491

 Al 
  0.7346740  0.5060554  0.2312348

 Al 
  0.7425808  0.7427862  0.9978070

 Al 
  0.4998899  0.9909571  0.5051742

 Al 
  0.4991894  0.2509504  0.7544924

 Al 
  0.7528056  0.0060764  0.7319266

 Al 
  0.7425771  0.2687924  0.4960472

 Al 
  0.4987550  0.4987513  0.4936340

 Al 
  0.4947849  0.7355403  0.7387889

 Al 
  0.7512450  0.4973640  0.7392827

 Al 
  0.7427986  0.7490805  0.5044602

