32 
charge = 0 
 Al 
  0.9924744  0.9973652  0.0074093

 Al 
  0.9923284  0.2772833  0.2496411

 Al 
  0.2620687  0.0122098  0.2483615

 Al 
  0.2659188  0.2424521  0.9949359

 Al 
  0.4973071  0.9882803  0.0133904

 Al 
  0.5171056  0.2501262  0.2511435

 Al 
  0.7484172  0.9993936  0.2690894

 Al 
  0.7590973  0.2610118  0.9943394

 Al 
  0.0047312  0.5078845  0.9957626

 Al 
  0.9697750  0.7357074  0.2669125

 Al 
  0.2558314  0.4944248  0.2522511

 Al 
  0.2468801  0.7474110  0.9953517

 Al 
  0.0109537  0.0102074  0.5179979

 Al 
  0.0067249  0.2598102  0.7543290

 Al 
  0.2705893  0.9909534  0.7558685

 Al 
  0.2546272  0.2574637  0.4908878

 Al 
  0.9942676  0.5070331  0.5090367

 Al 
  0.9914905  0.7541966  0.7533476

 Al 
  0.2550455  0.4942874  0.7411428

 Al 
  0.2336902  0.7459903  0.5163618

 Al 
  0.5018155  0.4847594  0.9807893

 Al 
  0.4975014  0.7402406  0.2450114

 Al 
  0.7362222  0.5038204  0.2319291

 Al 
  0.7378348  0.7477910  0.9927986

 Al 
  0.4998305  0.9919014  0.5091617

 Al 
  0.5041817  0.2460175  0.7578053

 Al 
  0.7529726  0.0034454  0.7331419

 Al 
  0.7442317  0.2722155  0.4981362

 Al 
  0.5023699  0.4978281  0.4929979

 Al 
  0.4977006  0.7368162  0.7332558

 Al 
  0.7518056  0.4963628  0.7428469

 Al 
  0.7442107  0.7453096  0.5045654

