32 
charge = 0 
 Al 
  0.9898619  0.0003577  0.0065492

 Al 
  0.9968826  0.2622420  0.2393458

 Al 
  0.2542077  0.0111282  0.2531224

 Al 
  0.2566841  0.2439458  0.0036199

 Al 
  0.4963727  0.9928791  0.0183889

 Al 
  0.5114623  0.2416984  0.2369734

 Al 
  0.7545678  0.0004839  0.2646070

 Al 
  0.7510631  0.2499480  0.9903260

 Al 
  0.0000965  0.5046384  0.9880984

 Al 
  0.9805888  0.7381776  0.2576271

 Al 
  0.2512178  0.4981300  0.2501658

 Al 
  0.2577100  0.7418408  0.0020148

 Al 
  0.0093052  0.0152344  0.5181365

 Al 
  0.0151304  0.2593807  0.7574328

 Al 
  0.2701933  0.9931538  0.7616591

 Al 
  0.2591654  0.2687701  0.4963084

 Al 
  0.0019454  0.5044503  0.5047931

 Al 
  0.9912653  0.7522177  0.7428630

 Al 
  0.2519702  0.4966672  0.7506633

 Al 
  0.2387209  0.7434793  0.5235211

 Al 
  0.5192540  0.4864809  0.9895228

 Al 
  0.4955386  0.7429422  0.2520073

 Al 
  0.7340280  0.5074613  0.2324019

 Al 
  0.7487451  0.7378731  0.0028773

 Al 
  0.4991238  0.9905698  0.4995174

 Al 
  0.4937429  0.2562398  0.7482823

 Al 
  0.7516620  0.0094575  0.7327657

 Al 
  0.7416551  0.2628583  0.4936723

 Al 
  0.4940312  0.5001658  0.4948233

 Al 
  0.4923494  0.7346666  0.7477192

 Al 
  0.7504319  0.4987525  0.7359116

 Al 
  0.7410252  0.7537077  0.5042820

