32 
charge = 0 
 Al 
  0.9896020  0.0008267  0.0055369

 Al 
  0.9990223  0.2543030  0.2355812

 Al 
  0.2481338  0.0086246  0.2573165

 Al 
  0.2513093  0.2462316  0.0077818

 Al 
  0.4988738  0.9946389  0.0178159

 Al 
  0.5075058  0.2390822  0.2317039

 Al 
  0.7576494  0.0010136  0.2609995

 Al 
  0.7478033  0.2431872  0.9879684

 Al 
  0.9978157  0.5031248  0.9855923

 Al 
  0.9891788  0.7411032  0.2521237

 Al 
  0.2488614  0.5009245  0.2477588

 Al 
  0.2620081  0.7388545  0.0059465

 Al 
  0.0090800  0.0174026  0.5158618

 Al 
  0.0178655  0.2575566  0.7578177

 Al 
  0.2678741  0.9953208  0.7637270

 Al 
  0.2604265  0.2714123  0.4994839

 Al 
  0.0047597  0.5014232  0.5015457

 Al 
  0.9905760  0.7517883  0.7401156

 Al 
  0.2506336  0.4980805  0.7565009

 Al 
  0.2429063  0.7440647  0.5228330

 Al 
  0.5237377  0.4894164  0.9942478

 Al 
  0.4934595  0.7453517  0.2557497

 Al 
  0.7353064  0.5067868  0.2361183

 Al 
  0.7537387  0.7358287  0.0054688

 Al 
  0.4976932  0.9911452  0.4949087

 Al 
  0.4902344  0.2595874  0.7421105

 Al 
  0.7497376  0.0121194  0.7355428

 Al 
  0.7416960  0.2570850  0.4917776

 Al 
  0.4908049  0.5018551  0.4959321

 Al 
  0.4920573  0.7349042  0.7563660

 Al 
  0.7497822  0.4999134  0.7338251

 Al 
  0.7398668  0.7570467  0.5039441

