32 
charge = 0 
 Al 
  0.9901255  0.0004802  0.0042374

 Al 
  0.0001794  0.2487835  0.2335243

 Al 
  0.2430065  0.0059651  0.2607111

 Al 
  0.2475373  0.2482352  0.0105688

 Al 
  0.5015816  0.9953220  0.0159683

 Al 
  0.5042275  0.2382258  0.2292733

 Al 
  0.7597532  0.0013019  0.2576395

 Al 
  0.7459445  0.2380674  0.9862532

 Al 
  0.9960336  0.5019937  0.9847520

 Al 
  0.9966227  0.7437107  0.2481214

 Al 
  0.2471821  0.5029974  0.2456227

 Al 
  0.2643112  0.7369796  0.0090651

 Al 
  0.0090317  0.0187874  0.5133174

 Al 
  0.0189273  0.2553673  0.7573981

 Al 
  0.2653148  0.9972811  0.7649312

 Al 
  0.2604958  0.2716710  0.5014789

 Al 
  0.0060566  0.4986610  0.4985558

 Al 
  0.9899275  0.7518217  0.7392357

 Al 
  0.2497735  0.4995013  0.7611084

 Al 
  0.2465732  0.7453171  0.5207514

 Al 
  0.5248267  0.4920945  0.9975620

 Al 
  0.4917863  0.7474011  0.2583560

 Al 
  0.7376429  0.5050839  0.2408173

 Al 
  0.7569997  0.7359549  0.0062175

 Al 
  0.4962205  0.9923704  0.4920932

 Al 
  0.4886268  0.2611579  0.7377234

 Al 
  0.7477414  0.0136986  0.7386800

 Al 
  0.7421588  0.2527957  0.4903891

 Al 
  0.4894151  0.5036038  0.4966833

 Al 
  0.4931872  0.7358720  0.7628249

 Al 
  0.7493812  0.5006435  0.7326469

 Al 
  0.7394052  0.7588535  0.5034912

