32 
charge = 0 
 Al 
  0.9897406  0.0007586  0.0050468

 Al 
  0.9995854  0.2518539  0.2345998

 Al 
  0.2459618  0.0075541  0.2587805

 Al 
  0.2496324  0.2470831  0.0090305

 Al 
  0.4999790  0.9950139  0.0171687

 Al 
  0.5061222  0.2385872  0.2304737

 Al 
  0.7585862  0.0011534  0.2596183

 Al 
  0.7469358  0.2409571  0.9872110

 Al 
  0.9970571  0.5026397  0.9851059

 Al 
  0.9922986  0.7421972  0.2503676

 Al 
  0.2481226  0.5018415  0.2468566

 Al 
  0.2631120  0.7379870  0.0072806

 Al 
  0.0090577  0.0180300  0.5148421

 Al 
  0.0184372  0.2566977  0.7577174

 Al 
  0.2668519  0.9961388  0.7642815

 Al 
  0.2605663  0.2717143  0.5004084

 Al 
  0.0054119  0.5002686  0.5003143

 Al 
  0.9902950  0.7517635  0.7396169

 Al 
  0.2502475  0.4986449  0.7584798

 Al 
  0.2444471  0.7445250  0.5220781

 Al 
  0.5244493  0.4905388  0.9957057

 Al 
  0.4927330  0.7462242  0.2569093

 Al 
  0.7361628  0.5061692  0.2379424

 Al 
  0.7552052  0.7357037  0.0059081

 Al 
  0.4970954  0.9915747  0.4936080

 Al 
  0.4894226  0.2603671  0.7401601

 Al 
  0.7489320  0.0128583  0.7368002

 Al 
  0.7418531  0.2552139  0.4911799

 Al 
  0.4900809  0.5025506  0.4962687

 Al 
  0.4924014  0.7352309  0.7591790

 Al 
  0.7495990  0.5002512  0.7332842

 Al 
  0.7396169  0.7579093  0.5037746

