32 
charge = 0 
 Al 
  0.9900067  0.0005705  0.0044577

 Al 
  0.0000483  0.2495285  0.2337669

 Al 
  0.2437491  0.0063784  0.2602334

 Al 
  0.2480447  0.2479469  0.0101988

 Al 
  0.5011707  0.9952663  0.0163036

 Al 
  0.5047065  0.2382852  0.2295258

 Al 
  0.7594711  0.0012685  0.2581493

 Al 
  0.7461747  0.2387778  0.9864858

 Al 
  0.9962910  0.5021558  0.9848077

 Al 
  0.9955237  0.7433271  0.2486721

 Al 
  0.2474123  0.5027177  0.2459321

 Al 
  0.2640401  0.7372135  0.0086196

 Al 
  0.0090392  0.0186068  0.5137159

 Al 
  0.0188332  0.2557200  0.7574984

 Al 
  0.2657170  0.9969902  0.7647777

 Al 
  0.2605416  0.2717291  0.5012301

 Al 
  0.0059193  0.4990694  0.4990075

 Al 
  0.9900153  0.7517982  0.7393025

 Al 
  0.2498886  0.4992748  0.7604537

 Al 
  0.2460361  0.7451005  0.5211141

 Al 
  0.5247921  0.4917009  0.9971053

 Al 
  0.4920190  0.7471066  0.2580058

 Al 
  0.7372370  0.5053809  0.2400525

 Al 
  0.7565677  0.7358485  0.0061680

 Al 
  0.4964470  0.9921464  0.4924484

 Al 
  0.4887951  0.2609871  0.7383125

 Al 
  0.7480508  0.0135055  0.7381899

 Al 
  0.7420734  0.2533909  0.4905871

 Al 
  0.4895500  0.5033266  0.4965831

 Al 
  0.4929570  0.7356888  0.7619264

 Al 
  0.7494332  0.5005532  0.7327979

 Al 
  0.7394448  0.7586394  0.5035691

