32 
charge = 0 
 Al 
  0.9917096  0.9992352  0.0019430

 Al 
  0.0007450  0.2434087  0.2322286

 Al 
  0.2370848  0.0023303  0.2642976

 Al 
  0.2439310  0.2504740  0.0131491

 Al 
  0.5049960  0.9952515  0.0124969

 Al 
  0.5002661  0.2384795  0.2283959

 Al 
  0.7617643  0.0014096  0.2532362

 Al 
  0.7444570  0.2328474  0.9846443

 Al 
  0.9939322  0.5006274  0.9850898

 Al 
  0.0057769  0.7468393  0.2440114

 Al 
  0.2454520  0.5048946  0.2431971

 Al 
  0.2657356  0.7356294  0.0125811

 Al 
  0.0088721  0.0200213  0.5098102

 Al 
  0.0189991  0.2521249  0.7561272

 Al 
  0.2616393  0.9996968  0.7659373

 Al 
  0.2593894  0.2700658  0.5029355

 Al 
  0.0066123  0.4953195  0.4946574

 Al 
  0.9894114  0.7522264  0.7392914

 Al 
  0.2489097  0.5016546  0.7662133

 Al 
  0.2509183  0.7474209  0.5172702

 Al 
  0.5238392  0.4952626  0.0011089

 Al 
  0.4901106  0.7497215  0.2608200

 Al 
  0.7417096  0.5021422  0.2479741

 Al 
  0.7600317  0.7377803  0.0060888

 Al 
  0.4942627  0.9948715  0.4898594

 Al 
  0.4880192  0.2619338  0.7336011

 Al 
  0.7450002  0.0147654  0.7429286

 Al 
  0.7430659  0.2482501  0.4887666

 Al 
  0.4891181  0.5061606  0.4974160

 Al 
  0.4957849  0.7379226  0.7696649

 Al 
  0.7490372  0.5011621  0.7315851

 Al 
  0.7394201  0.7600676  0.5026731

