32 
charge = 0 
 Al 
  0.9919967  0.9990137  0.0015828

 Al 
  0.0007512  0.2428184  0.2321519

 Al 
  0.2363645  0.0018440  0.2647035

 Al 
  0.2435424  0.2507376  0.0134164

 Al 
  0.5054242  0.9951785  0.0119734

 Al 
  0.4997587  0.2385959  0.2284280

 Al 
  0.7619771  0.0013997  0.2526496

 Al 
  0.7443097  0.2322781  0.9844872

 Al 
  0.9936637  0.5004430  0.9852322

 Al 
  0.0069576  0.7472328  0.2435387

 Al 
  0.2452502  0.5050765  0.2429112

 Al 
  0.2658198  0.7355378  0.0130043

 Al 
  0.0088300  0.0201463  0.5093424

 Al 
  0.0189248  0.2516719  0.7559094

 Al 
  0.2611257  0.0000074  0.7660339

 Al 
  0.2591567  0.2697255  0.5030444

 Al 
  0.0066160  0.4949000  0.4941389

 Al 
  0.9893842  0.7523031  0.7393632

 Al 
  0.2488058  0.5019690  0.7668271

 Al 
  0.2514554  0.7477254  0.5167801

 Al 
  0.5235743  0.4956512  0.0015494

 Al 
  0.4899361  0.7500050  0.2610787

 Al 
  0.7423123  0.5017140  0.2489802

 Al 
  0.7603547  0.7381194  0.0060195

 Al 
  0.4940040  0.9952799  0.4896589

 Al 
  0.4880352  0.2619586  0.7331716

 Al 
  0.7446265  0.0148272  0.7434818

 Al 
  0.7432021  0.2477093  0.4885575

 Al 
  0.4891763  0.5065195  0.4975001

 Al 
  0.4961970  0.7382555  0.7704680

 Al 
  0.7490038  0.5011955  0.7314700

 Al 
  0.7394659  0.7601629  0.5025432

