32 
charge = 0 
 Al 
  0.9933654  0.9979877  0.9999703

 Al 
  0.0006299  0.2406626  0.2320417

 Al 
  0.2335912  0.9998713  0.2661910

 Al 
  0.2421390  0.2517289  0.0143384

 Al 
  0.5070912  0.9947626  0.0097186

 Al 
  0.4977216  0.2392258  0.2288686

 Al 
  0.7627135  0.0012809  0.2502413

 Al 
  0.7437949  0.2302658  0.9839909

 Al 
  0.9925796  0.4996634  0.9860118

 Al 
  0.0116974  0.7487872  0.2417665

 Al 
  0.2444829  0.5056309  0.2418469

 Al 
  0.2659448  0.7353869  0.0146218

 Al 
  0.0085850  0.0205572  0.5074402

 Al 
  0.0184397  0.2497797  0.7549193

 Al 
  0.2589587  0.0012475  0.7663433

 Al 
  0.2580219  0.2680635  0.5033068

 Al 
  0.0064984  0.4932516  0.4920202

 Al 
  0.9893830  0.7526546  0.7397715

 Al 
  0.2483924  0.5033167  0.7691934

 Al 
  0.2535444  0.7490248  0.5147517

 Al 
  0.5222600  0.4971511  0.0033253

 Al 
  0.4893570  0.7511212  0.2619784

 Al 
  0.7448975  0.4999010  0.2531904

 Al 
  0.7615130  0.7396824  0.0056631

 Al 
  0.4929570  0.9971363  0.4890364

 Al 
  0.4883087  0.2619029  0.7316804

 Al 
  0.7430820  0.0148842  0.7456760

 Al 
  0.7437887  0.2456104  0.4877209

 Al 
  0.4896070  0.5080157  0.4978268

 Al 
  0.4980174  0.7397616  0.7735261

 Al 
  0.7488911  0.5012462  0.7310579

 Al 
  0.7397480  0.7604364  0.5019615

