32 
charge = 0 
 Al 
  0.9926365  0.9985285  0.0008106

 Al 
  0.0007203  0.2416984  0.2320578

 Al 
  0.2349525  0.0008613  0.2654770

 Al 
  0.2428098  0.2512475  0.0139077

 Al 
  0.5062683  0.9949953  0.0108757

 Al 
  0.4987402  0.2388793  0.2285865

 Al 
  0.7623694  0.0013564  0.2514566

 Al 
  0.7440374  0.2312150  0.9842112

 Al 
  0.9931241  0.5000631  0.9855787

 Al 
  0.0093275  0.7480149  0.2426278

 Al 
  0.2448579  0.5053896  0.2423618

 Al 
  0.2659250  0.7354166  0.0138310

 Al 
  0.0087248  0.0203703  0.5083956

 Al 
  0.0187206  0.2507401  0.7554378

 Al 
  0.2600626  0.0006287  0.7662046

 Al 
  0.2586283  0.2689533  0.5032115

 Al 
  0.0065838  0.4940684  0.4930870

 Al 
  0.9893607  0.7524689  0.7395451

 Al 
  0.2485978  0.5026249  0.7680288

 Al 
  0.2525135  0.7483602  0.5157777

 Al 
  0.5229642  0.4964123  0.0024343

 Al 
  0.4896206  0.7505668  0.2615564

 Al 
  0.7435721  0.5008255  0.2510532

 Al 
  0.7609623  0.7388619  0.0058561

 Al 
  0.4934818  0.9961636  0.4893112

 Al 
  0.4881305  0.2619610  0.7323796

 Al 
  0.7438642  0.0148953  0.7445869

 Al 
  0.7434879  0.2466474  0.4881392

 Al 
  0.4893532  0.5072571  0.4976660

 Al 
  0.4970732  0.7389733  0.7720299

 Al 
  0.7489419  0.5012376  0.7312546

 Al 
  0.7395859  0.7603188  0.5022647

