32 
charge = 0 
 Al 
  0.9950968  0.9967551  0.9980917

 Al 
  0.0002686  0.2388582  0.2322397

 Al 
  0.2310801  0.9979159  0.2674150

 Al 
  0.2409980  0.2525840  0.0149931

 Al 
  0.5086419  0.9941686  0.0072645

 Al 
  0.4957057  0.2400772  0.2297931

 Al 
  0.7632357  0.0010160  0.2477711

 Al 
  0.7433877  0.2287671  0.9837434

 Al 
  0.9914732  0.4988070  0.9871194

 Al 
  0.0163569  0.7502797  0.2402208

 Al 
  0.2437924  0.5058623  0.2409621

 Al 
  0.2657356  0.7356356  0.0160537

 Al 
  0.0081865  0.0207849  0.5055344

 Al 
  0.0176402  0.2478046  0.7537622

 Al 
  0.2566519  0.0024603  0.7665140

 Al 
  0.2565950  0.2659596  0.5032721

 Al 
  0.0061791  0.4916922  0.4898668

 Al 
  0.9895822  0.7530803  0.7403383

 Al 
  0.2479877  0.5047918  0.7713851

 Al 
  0.2554861  0.7504356  0.5126764

 Al 
  0.5206178  0.4985372  0.0051322

 Al 
  0.4890166  0.7522189  0.2626392

 Al 
  0.7477117  0.4979791  0.2575764

 Al 
  0.7624350  0.7415202  0.0052188

 Al 
  0.4919175  0.9993391  0.4887134

 Al 
  0.4889077  0.2616145  0.7305864

 Al 
  0.7414670  0.0145933  0.7477551

 Al 
  0.7444174  0.2435981  0.4868992

 Al 
  0.4903297  0.5095763  0.4981474

 Al 
  0.5000854  0.7415462  0.7762920

 Al 
  0.7488181  0.5011571  0.7307398

 Al 
  0.7401960  0.7605812  0.5012846

