32 
charge = 0 
 Al 
  0.9989580  0.9942305  0.9942886

 Al 
  0.9990879  0.2365997  0.2332607

 Al 
  0.2277152  0.9948555  0.2687540

 Al 
  0.2396738  0.2536347  0.0153495

 Al 
  0.5108707  0.9928766  0.0027660

 Al 
  0.4923531  0.2419484  0.2324885

 Al 
  0.7635365  0.0000829  0.2434508

 Al 
  0.7429298  0.2276929  0.9840082

 Al 
  0.9894411  0.4971066  0.9897654

 Al 
  0.0237451  0.7525519  0.2382246

 Al 
  0.2428345  0.5053376  0.2400463

 Al 
  0.2646416  0.7372222  0.0178333

 Al 
  0.0069749  0.0205398  0.5023526

 Al 
  0.0154386  0.2443901  0.7514578

 Al 
  0.2524850  0.0043884  0.7664088

 Al 
  0.2535679  0.2614252  0.5024974

 Al 
  0.0052757  0.4893433  0.4862346

 Al 
  0.9904770  0.7539392  0.7415536

 Al 
  0.2473232  0.5075429  0.7746287

 Al 
  0.2582979  0.7530902  0.5092186

 Al 
  0.5172776  0.5005656  0.0083684

 Al 
  0.4892109  0.7541273  0.2631367

 Al 
  0.7529318  0.4945956  0.2651527

 Al 
  0.7634486  0.7451401  0.0044131

 Al 
  0.4902443  0.0039008  0.4888743

 Al 
  0.4906564  0.2606381  0.7297263

 Al 
  0.7385736  0.0131244  0.7507834

 Al 
  0.7455423  0.2402332  0.4856220

 Al 
  0.4921353  0.5122717  0.4987389

 Al 
  0.5041533  0.7452527  0.7801965

 Al 
  0.7487996  0.5006497  0.7304948

 Al 
  0.7414002  0.7607024  0.4999035

