32 
charge = 0 
 Al 
  0.9971833  0.9953554  0.9959853

 Al 
  0.9996770  0.2374251  0.2327273

 Al 
  0.2289627  0.9960806  0.2683209

 Al 
  0.2401342  0.2532622  0.0153309

 Al 
  0.5100106  0.9934496  0.0047003

 Al 
  0.4937528  0.2410995  0.2311754

 Al 
  0.7635092  0.0005643  0.2452886

 Al 
  0.7430845  0.2278909  0.9837793

 Al 
  0.9903309  0.4978677  0.9885303

 Al 
  0.0207502  0.7516497  0.2389572

 Al 
  0.2431996  0.5057163  0.2403247

 Al 
  0.2652134  0.7363522  0.0172058

 Al 
  0.0075863  0.0207638  0.5036780

 Al 
  0.0165103  0.2458257  0.7524788

 Al 
  0.2542721  0.0036025  0.7665239

 Al 
  0.2549329  0.2634795  0.5029355

 Al 
  0.0057015  0.4902789  0.4877481

 Al 
  0.9900042  0.7535592  0.7410116

 Al 
  0.2475991  0.5063499  0.7733441

 Al 
  0.2572001  0.7519318  0.5106480

 Al 
  0.5187553  0.4997673  0.0069700

 Al 
  0.4889894  0.7533092  0.2630303

 Al 
  0.7506720  0.4960299  0.2619648

 Al 
  0.7631058  0.7435498  0.0047461

 Al 
  0.4909287  0.0018502  0.4886936

 Al 
  0.4898099  0.2611195  0.7299243

 Al 
  0.7398111  0.0139114  0.7496077

 Al 
  0.7450621  0.2416564  0.4861343

 Al 
  0.4912925  0.5111368  0.4984766

 Al 
  0.5023551  0.7435845  0.7786892

 Al 
  0.7487884  0.5009207  0.7305443

 Al 
  0.7408160  0.7606567  0.5005235

