32 
charge = 0 
 Al 
  0.9955869  0.9964185  0.9975843

 Al 
  0.0001423  0.2384647  0.2323350

 Al 
  0.2305096  0.9974420  0.2676736

 Al 
  0.2407554  0.2527721  0.0151094

 Al 
  0.5090045  0.9939978  0.0066296

 Al 
  0.4952094  0.2403185  0.2300975

 Al 
  0.7633285  0.0009220  0.2471487

 Al 
  0.7433011  0.2284862  0.9837248

 Al 
  0.9911923  0.4985805  0.9874449

 Al 
  0.0174880  0.7506361  0.2398767

 Al 
  0.2436340  0.5058636  0.2407764

 Al 
  0.2656329  0.7357693  0.0163717

 Al 
  0.0080565  0.0208059  0.5050629

 Al 
  0.0173902  0.2473071  0.7534516

 Al 
  0.2560603  0.0027536  0.7665326

 Al 
  0.2561990  0.2653718  0.5032152

 Al 
  0.0060727  0.4913234  0.4893310

 Al 
  0.9896651  0.7531954  0.7404992

 Al 
  0.2478887  0.5051755  0.7718987

 Al 
  0.2559391  0.7508032  0.5121615

 Al 
  0.5201686  0.4988614  0.0055888

 Al 
  0.4889770  0.7524925  0.2627630

 Al 
  0.7484419  0.4974915  0.2586803

 Al 
  0.7626269  0.7420140  0.0051012

 Al 
  0.4916638  0.9999394  0.4886800

 Al 
  0.4891070  0.2615081  0.7303784

 Al 
  0.7410549  0.0144609  0.7482439

 Al 
  0.7445770  0.2431068  0.4866999

 Al 
  0.4905512  0.5099686  0.4982278

 Al 
  0.5006361  0.7420338  0.7769294

 Al 
  0.7488058  0.5011113  0.7306779

 Al 
  0.7403346  0.7606034  0.5011014

