32 
charge = 0 
 Al 
  0.0015668  0.9926736  0.9919101

 Al 
  0.9981201  0.2358250  0.2341592

 Al 
  0.2266113  0.9935189  0.2689619

 Al 
  0.2393062  0.2539305  0.0150290

 Al 
  0.5117358  0.9921427  0.0002599

 Al 
  0.4906044  0.2431662  0.2345750

 Al 
  0.7633261  0.9992327  0.2410611

 Al 
  0.7428308  0.2280815  0.9845973

 Al 
  0.9881974  0.4960089  0.9916267

 Al 
  0.0271744  0.7535233  0.2375712

 Al 
  0.2424744  0.5044614  0.2399708

 Al 
  0.2636813  0.7388434  0.0182924

 Al 
  0.0059056  0.0199012  0.5007091

 Al 
  0.0136986  0.2426019  0.7500545

 Al 
  0.2501572  0.0053190  0.7660697

 Al 
  0.2516311  0.2584946  0.5016880

 Al 
  0.0046817  0.4882877  0.4843832

 Al 
  0.9913210  0.7544540  0.7422887

 Al 
  0.2469766  0.5091307  0.7760606

 Al 
  0.2594785  0.7546520  0.5075046

 Al 
  0.5152604  0.5014479  0.0102668

 Al 
  0.4898693  0.7552299  0.2630179

 Al 
  0.7559193  0.4927702  0.2691401

 Al 
  0.7637159  0.7472897  0.0040406

 Al 
  0.4894349  0.0068041  0.4893582

 Al 
  0.4919608  0.2598819  0.7298649

 Al 
  0.7369808  0.0116974  0.7520098

 Al 
  0.7461611  0.2383620  0.4850465

 Al 
  0.4933729  0.5136973  0.4991226

 Al 
  0.5066271  0.7476115  0.7817559

 Al 
  0.7488726  0.5001646  0.7305826

 Al 
  0.7423494  0.7607915  0.4990199

