32 
charge = 0 
 Al 
  0.9995867  0.9938456  0.9937045

 Al 
  0.9988652  0.2363707  0.2334674

 Al 
  0.2273749  0.9944854  0.2688468

 Al 
  0.2395562  0.2537313  0.0153074

 Al 
  0.5111195  0.9926872  0.0021286

 Al 
  0.4919026  0.2422454  0.2329761

 Al 
  0.7635105  0.9998936  0.2428457

 Al 
  0.7428939  0.2277189  0.9841258

 Al 
  0.9891367  0.4968405  0.9902096

 Al 
  0.0246683  0.7528229  0.2380253

 Al 
  0.2427306  0.5051582  0.2399943

 Al 
  0.2644213  0.7375773  0.0179904

 Al 
  0.0067361  0.0204185  0.5019269

 Al 
  0.0150376  0.2439273  0.7511101

 Al 
  0.2518947  0.0046347  0.7663457

 Al 
  0.2530951  0.2607099  0.5023180

 Al 
  0.0051272  0.4890587  0.4857519

 Al 
  0.9906651  0.7540679  0.7417368

 Al 
  0.2472340  0.5079414  0.7750186

 Al 
  0.2586246  0.7534788  0.5087669

 Al 
  0.5167752  0.5008057  0.0088399

 Al 
  0.4893359  0.7544008  0.2631343

 Al 
  0.7536842  0.4941290  0.2661811

 Al 
  0.7635340  0.7456772  0.0043117

 Al 
  0.4900302  0.0046112  0.4889696

 Al 
  0.4909658  0.2604599  0.7297176

 Al 
  0.7381664  0.0128088  0.7511287

 Al 
  0.7456995  0.2397629  0.4854661

 Al 
  0.4924348  0.5126392  0.4988305

 Al 
  0.5047646  0.7458294  0.7806371

 Al 
  0.7488119  0.5005408  0.7304985

 Al 
  0.7416180  0.7607198  0.4996894

