32 
charge = 0 
 Al 
  0.0022561  0.9922788  0.9912999

 Al 
  0.9978479  0.2356888  0.2344129

 Al 
  0.2264467  0.9932503  0.2689446

 Al 
  0.2392567  0.2539676  0.0148842

 Al 
  0.5118942  0.9919756  0.9996572

 Al 
  0.4901911  0.2434830  0.2351530

 Al 
  0.7632271  0.9989815  0.2404770

 Al 
  0.7428271  0.2282969  0.9847953

 Al 
  0.9878744  0.4957205  0.9921279

 Al 
  0.0279107  0.7537176  0.2374709

 Al 
  0.2424088  0.5041780  0.2400067

 Al 
  0.2634115  0.7393322  0.0183333

 Al 
  0.0055888  0.0196735  0.5003242

 Al 
  0.0132060  0.2421836  0.7496993

 Al 
  0.2495916  0.0055294  0.7659485

 Al 
  0.2511287  0.2577360  0.5014492

 Al 
  0.0045381  0.4880588  0.4839575

 Al 
  0.9915710  0.7545827  0.7424707

 Al 
  0.2468950  0.5095243  0.7763638

 Al 
  0.2597198  0.7550431  0.5071160

 Al 
  0.5147542  0.5016361  0.0107482

 Al 
  0.4901020  0.7555096  0.2629424

 Al 
  0.7566519  0.4923333  0.2700782

 Al 
  0.7637543  0.7478256  0.0039652

 Al 
  0.4892530  0.0075528  0.4895203

 Al 
  0.4923123  0.2596777  0.7299725

 Al 
  0.7365997  0.0112730  0.7522499

 Al 
  0.7463108  0.2378979  0.4849228

 Al 
  0.4936971  0.5140340  0.4992240

 Al 
  0.5072534  0.7482179  0.7820578

 Al 
  0.7489023  0.5000210  0.7306359

 Al 
  0.7426192  0.7608237  0.4987897

