32 
charge = 0 
 Al 
  0.0002314  0.9934570  0.9931130

 Al 
  0.9986288  0.2361665  0.2336865

 Al 
  0.2270766  0.9941389  0.2689124

 Al 
  0.2394560  0.2538129  0.0152406

 Al 
  0.5113472  0.9925004  0.0014975

 Al 
  0.4914596  0.2425474  0.2334860

 Al 
  0.7634672  0.9996894  0.2422454

 Al 
  0.7428642  0.2277932  0.9842619

 Al 
  0.9888285  0.4965695  0.9906675

 Al 
  0.0255495  0.7530753  0.2378496

 Al 
  0.2426353  0.5049527  0.2399646

 Al 
  0.2641874  0.7379659  0.0181204

 Al 
  0.0064786  0.0202725  0.5015111

 Al 
  0.0146131  0.2434743  0.7507611

 Al 
  0.2513093  0.0048710  0.7662678

 Al 
  0.2526150  0.2599834  0.5021237

 Al 
  0.0049787  0.4887877  0.4852817

 Al 
  0.9908680  0.7541966  0.7419212

 Al 
  0.2471474  0.5083399  0.7753874

 Al 
  0.2589303  0.7538699  0.5083300

 Al 
  0.5162715  0.5010334  0.0093127

 Al 
  0.4894869  0.7546755  0.2631144

 Al 
  0.7544329  0.4936686  0.2671897

 Al 
  0.7636070  0.7462143  0.0042151

 Al 
  0.4898235  0.0053327  0.4890822

 Al 
  0.4912863  0.2602742  0.7297374

 Al 
  0.7377642  0.0124660  0.7514479

 Al 
  0.7458554  0.2392951  0.4853176

 Al 
  0.4927405  0.5129994  0.4989258

 Al 
  0.5053822  0.7464160  0.7810443

 Al 
  0.7488280  0.5004245  0.7305146

 Al 
  0.7418494  0.7607408  0.4994703

