32 
charge = 0 
 Al 
  0.0051309  0.9907047  0.9888161

 Al 
  0.9966474  0.2353584  0.2355205

 Al 
  0.2262846  0.9924892  0.2685733

 Al 
  0.2392171  0.2539565  0.0140352

 Al 
  0.5122717  0.9914225  0.9973912

 Al 
  0.4886466  0.2447923  0.2376764

 Al 
  0.7626504  0.9978108  0.2382036

 Al 
  0.7428939  0.2296334  0.9857953

 Al 
  0.9865304  0.4945065  0.9942664

 Al 
  0.0303067  0.7542560  0.2373360

 Al 
  0.2422566  0.5027870  0.2403817

 Al 
  0.2622370  0.7416168  0.0181773

 Al 
  0.0041087  0.0184422  0.4988899

 Al 
  0.0109957  0.2406502  0.7482773

 Al 
  0.2474246  0.0062683  0.7652963

 Al 
  0.2490582  0.2546297  0.5003601

 Al 
  0.0040221  0.4872878  0.4824415

 Al 
  0.9927194  0.7550913  0.7431872

 Al 
  0.2465794  0.5110650  0.7773501

 Al 
  0.2604710  0.7565950  0.5057547

 Al 
  0.5127395  0.5022561  0.0127098

 Al 
  0.4913160  0.7566568  0.2624524

 Al 
  0.7594859  0.4906762  0.2735422

 Al 
  0.7638186  0.7499369  0.0037424

 Al 
  0.4886231  0.0106034  0.4903173

 Al 
  0.4937936  0.2588102  0.7306953

 Al 
  0.7351876  0.0093065  0.7529367

 Al 
  0.7468826  0.2360440  0.4845206

 Al 
  0.4950275  0.5152876  0.4996659

 Al 
  0.5097631  0.7506807  0.7828796

 Al 
  0.7490718  0.4993676  0.7309836

 Al 
  0.7438394  0.7610081  0.4978244

