32 
charge = 0 
 Al 
  0.0103980  0.9880971  0.9845156

 Al 
  0.9942057  0.2355230  0.2376912

 Al 
  0.2280642  0.9925561  0.2667133

 Al 
  0.2397183  0.2533179  0.0114970

 Al 
  0.5117977  0.9912009  0.9942391

 Al 
  0.4864536  0.2472192  0.2428172

 Al 
  0.7609264  0.9951735  0.2345144

 Al 
  0.7433308  0.2337025  0.9883174

 Al 
  0.9839996  0.4921798  0.9984691

 Al 
  0.0320553  0.7541780  0.2382209

 Al 
  0.2424608  0.4994864  0.2419051

 Al 
  0.2599438  0.7468120  0.0166155

 Al 
  0.0006782  0.0148817  0.4967848

 Al 
  0.0061816  0.2386305  0.7458245

 Al 
  0.2441637  0.0071482  0.7633929

 Al 
  0.2452168  0.2491015  0.4980508

 Al 
  0.0036050  0.4865081  0.4807559

 Al 
  0.9952973  0.7558821  0.7443134

 Al 
  0.2460819  0.5135761  0.7781286

 Al 
  0.2609599  0.7592062  0.5041817

 Al 
  0.5093448  0.5028711  0.0162764

 Al 
  0.4945250  0.7588090  0.2609042

 Al 
  0.7637827  0.4882085  0.2782164

 Al 
  0.7637283  0.7533563  0.0037300

 Al 
  0.4879412  0.0159262  0.4922095

 Al 
  0.4965175  0.2572175  0.7330813

 Al 
  0.7333486  0.0049453  0.7530444

 Al 
  0.7477365  0.2328078  0.4842112

 Al 
  0.4973739  0.5170771  0.5005829

 Al 
  0.5140092  0.7548661  0.7826457

 Al 
  0.7496102  0.4979296  0.7321593

 Al 
  0.7465484  0.7616046  0.4959891

