32 
charge = 0 
 Al 
  0.0125996  0.9871157  0.9828313

 Al 
  0.9930919  0.2358151  0.2386429

 Al 
  0.2296334  0.9931699  0.2654398

 Al 
  0.2401304  0.2528093  0.0100230

 Al 
  0.5111096  0.9915276  0.9933258

 Al 
  0.4857631  0.2482885  0.2452242

 Al 
  0.7599290  0.9938704  0.2330899

 Al 
  0.7436179  0.2360242  0.9896651

 Al 
  0.9828808  0.4911366  0.0003898

 Al 
  0.0317695  0.7537275  0.2390525

 Al 
  0.2427454  0.4978207  0.2428692

 Al 
  0.2589364  0.7494171  0.0154510

 Al 
  0.9989208  0.0127605  0.4960299

 Al 
  0.0037770  0.2380773  0.7448121

 Al 
  0.2430721  0.0073511  0.7622234

 Al 
  0.2435090  0.2468071  0.4969742

 Al 
  0.0037251  0.4864079  0.4805443

 Al 
  0.9965930  0.7561259  0.7447020

 Al 
  0.2458876  0.5145352  0.7780654

 Al 
  0.2608658  0.7602458  0.5038476

 Al 
  0.5079971  0.5029776  0.0178333

 Al 
  0.4962824  0.7597842  0.2600057

 Al 
  0.7652084  0.4873731  0.2795419

 Al 
  0.7636676  0.7546211  0.0038859

 Al 
  0.4878360  0.0180548  0.4931724

 Al 
  0.4976536  0.2565603  0.7345230

 Al 
  0.7329142  0.0028303  0.7526707

 Al 
  0.7480236  0.2314403  0.4842557

 Al 
  0.4983281  0.5176687  0.5010321

 Al 
  0.5156626  0.7564638  0.7818227

 Al 
  0.7499480  0.4972254  0.7328919

 Al 
  0.7479197  0.7619685  0.4951599

