32 
charge = 0 
 Al 
  0.0164559  0.9856084  0.9801433

 Al 
  0.9909596  0.2365997  0.2404114

 Al 
  0.2339463  0.9953084  0.2621665

 Al 
  0.2412244  0.2514566  0.0065665

 Al 
  0.5089117  0.9930919  0.9924434

 Al 
  0.4849451  0.2504034  0.2501040

 Al 
  0.7576135  0.9912096  0.2306804

 Al 
  0.7442552  0.2412913  0.9926674

 Al 
  0.9807547  0.4891144  0.0041966

 Al 
  0.0294441  0.7522029  0.2414410

 Al 
  0.2436513  0.4943320  0.2452020

 Al 
  0.2570479  0.7549131  0.0124053

 Al 
  0.9951636  0.0075764  0.4947490

 Al 
  0.9986003  0.2376120  0.7429459

 Al 
  0.2416663  0.0074415  0.7591976

 Al 
  0.2400958  0.2426650  0.4948814

 Al 
  0.0046322  0.4866418  0.4812720

 Al 
  0.9993713  0.7563066  0.7452131

 Al 
  0.2455435  0.5161131  0.7772264

 Al 
  0.2602334  0.7620774  0.5037709

 Al 
  0.5056668  0.5029825  0.0208294

 Al 
  0.5002339  0.7617358  0.2579489

 Al 
  0.7669657  0.4862346  0.2807559

 Al 
  0.7635884  0.7565529  0.0044379

 Al 
  0.4879820  0.0216190  0.4952440

 Al 
  0.4996671  0.2554255  0.7380179

 Al 
  0.7328808  0.9985731  0.7513044

 Al 
  0.7484221  0.2288859  0.4846815

 Al 
  0.5000012  0.5185028  0.5019912

 Al 
  0.5183630  0.7589513  0.7788971

 Al 
  0.7508193  0.4957675  0.7347124

 Al 
  0.7508935  0.7628075  0.4934941

