32 
charge = 0 
 Al 
  0.0174806  0.9852817  0.9795221

 Al 
  0.9903284  0.2368695  0.2409287

 Al 
  0.2356183  0.9962155  0.2609165

 Al 
  0.2416415  0.2509405  0.0053302

 Al 
  0.5079798  0.9938741  0.9924274

 Al 
  0.4848547  0.2510792  0.2516670

 Al 
  0.7567979  0.9903804  0.2300406

 Al 
  0.7444545  0.2431068  0.9937058

 Al 
  0.9801297  0.4884993  0.0053859

 Al 
  0.0282387  0.7515655  0.2423989

 Al 
  0.2440349  0.4932008  0.2460497

 Al 
  0.2564935  0.7567150  0.0112494

 Al 
  0.9939260  0.0056507  0.4943839

 Al 
  0.9968504  0.2376417  0.7423915

 Al 
  0.2414571  0.0073858  0.7580021

 Al 
  0.2389944  0.2414831  0.4942540

 Al 
  0.0051247  0.4868410  0.4818672

 Al 
  0.0003044  0.7562534  0.7452923

 Al 
  0.2454470  0.5165116  0.7767573

 Al 
  0.2599253  0.7625934  0.5038971

 Al 
  0.5050307  0.5029466  0.0217440

 Al 
  0.5015952  0.7623533  0.2572336

 Al 
  0.7671823  0.4860341  0.2807312

 Al 
  0.7635835  0.7569774  0.0046656

 Al 
  0.4881268  0.0225174  0.4959445

 Al 
  0.5002228  0.2551272  0.7393087

 Al 
  0.7331357  0.9972501  0.7507203

 Al 
  0.7485001  0.2281347  0.4849178

 Al 
  0.5004616  0.5186736  0.5023167

 Al 
  0.5190226  0.7595107  0.7775964

 Al 
  0.7511571  0.4952973  0.7353968

 Al 
  0.7518997  0.7630847  0.4929583

