32 
charge = 0 
 Al 
  0.0186971  0.9849884  0.9788897

 Al 
  0.9894956  0.2372383  0.2416155

 Al 
  0.2382234  0.9976684  0.2589587

 Al 
  0.2422912  0.2501436  0.0034652

 Al 
  0.5064613  0.9952515  0.9926328

 Al 
  0.4848906  0.2520420  0.2538798

 Al 
  0.7555851  0.9892641  0.2292523

 Al 
  0.7447144  0.2457651  0.9952478

 Al 
  0.9793191  0.4876702  0.0070368

 Al 
  0.0261485  0.7505520  0.2439211

 Al 
  0.2446599  0.4915994  0.2473318

 Al 
  0.2557609  0.7592780  0.0094636

 Al 
  0.9921687  0.0026781  0.4938852

 Al 
  0.9942874  0.2378348  0.7416415

 Al 
  0.2413903  0.0072397  0.7560690

 Al 
  0.2374090  0.2399399  0.4934186

 Al 
  0.0060022  0.4872383  0.4830627

 Al 
  0.0016571  0.7560603  0.7453257

 Al 
  0.2453257  0.5169756  0.7759133

 Al 
  0.2594117  0.7632679  0.5041904

 Al 
  0.5042250  0.5028835  0.0229914

 Al 
  0.5035964  0.7632209  0.2561767

 Al 
  0.7671563  0.4859066  0.2803327

 Al 
  0.7635921  0.7573870  0.0050109

 Al 
  0.4884189  0.0235409  0.4969779

 Al 
  0.5009245  0.2547708  0.7413024

 Al 
  0.7337619  0.9954470  0.7497859

 Al 
  0.7485694  0.2271410  0.4853460

 Al 
  0.5010470  0.5188357  0.5028018

 Al 
  0.5197515  0.7600700  0.7754232

 Al 
  0.7516905  0.4946352  0.7364611

 Al 
  0.7533649  0.7634647  0.4921922

