32 
charge = 0 
 Al 
  0.0183357  0.9850589  0.9790604

 Al 
  0.9897567  0.2371219  0.2413989

 Al 
  0.2373484  0.9971771  0.2596196

 Al 
  0.2420722  0.2504109  0.0040852

 Al 
  0.5069799  0.9947676  0.9925363

 Al 
  0.4848559  0.2517289  0.2531632

 Al 
  0.7559849  0.9896169  0.2294911

 Al 
  0.7446339  0.2448926  0.9947379

 Al 
  0.9795703  0.4879325  0.0065071

 Al 
  0.0268774  0.7508948  0.2434050

 Al 
  0.2444458  0.4921180  0.2469049

 Al 
  0.2559898  0.7584476  0.0100626

 Al 
  0.9927380  0.0036756  0.4940448

 Al 
  0.9951302  0.2377518  0.7418804

 Al 
  0.2413804  0.0072954  0.7567299

 Al 
  0.2379276  0.2404225  0.4936810

 Al 
  0.0056928  0.4870935  0.4826259

 Al 
  0.0012140  0.7561395  0.7453257

 Al 
  0.2453629  0.5168395  0.7762103

 Al 
  0.2595886  0.7630563  0.5040802

 Al 
  0.5044738  0.5029046  0.0225942

 Al 
  0.5029392  0.7629412  0.2565244

 Al 
  0.7672108  0.4859264  0.2805109

 Al 
  0.7635872  0.7572806  0.0048970

 Al 
  0.4883125  0.0232451  0.4966363

 Al 
  0.5007079  0.2548772  0.7406329

 Al 
  0.7335206  0.9960212  0.7501027

 Al 
  0.7485521  0.2274528  0.4851938

 Al 
  0.5008663  0.5187949  0.5026410

 Al 
  0.5195436  0.7599203  0.7761720

 Al 
  0.7515098  0.4948493  0.7361022

 Al 
  0.7528848  0.7633459  0.4924410

