32 
charge = 0 
 Al 
  0.0169880  0.9854327  0.9798141

 Al 
  0.9906378  0.2367358  0.2406750

 Al 
  0.2347730  0.9957539  0.2615489

 Al 
  0.2414311  0.2512004  0.0059514

 Al 
  0.5084550  0.9934681  0.9924187

 Al 
  0.4848881  0.2507438  0.2508935

 Al 
  0.7572063  0.9907876  0.2303487

 Al 
  0.7443567  0.2422009  0.9931872

 Al 
  0.9804354  0.4888013  0.0047993

 Al 
  0.0288637  0.7518898  0.2419125

 Al 
  0.2438394  0.4937614  0.2456240

 Al 
  0.2567645  0.7558215  0.0118336

 Al 
  0.9945399  0.0066222  0.4945634

 Al 
  0.9977229  0.2376157  0.7426637

 Al 
  0.2415450  0.0074179  0.7586097

 Al 
  0.2395414  0.2420598  0.4945609

 Al 
  0.0048686  0.4867346  0.4815479

 Al 
  0.9998391  0.7562868  0.7452577

 Al 
  0.2454940  0.5163210  0.7770024

 Al 
  0.2600837  0.7623422  0.5038253

 Al 
  0.5053388  0.5029664  0.0212947

 Al 
  0.5009158  0.7620477  0.2575912

 Al 
  0.7670982  0.4861232  0.2807695

 Al 
  0.7635847  0.7567806  0.0045505

 Al 
  0.4880489  0.0220893  0.4955955

 Al 
  0.4999530  0.2552708  0.7386577

 Al 
  0.7329909  0.9979011  0.7510185

 Al 
  0.7484642  0.2285023  0.4847941

 Al 
  0.5002388  0.5185944  0.5021546

 Al 
  0.5187095  0.7592495  0.7782635

 Al 
  0.7509851  0.4955299  0.7350515

 Al 
  0.7513984  0.7629474  0.4932231

