32 
charge = 0 
 Al 
  0.0158878  0.9858076  0.9805109

 Al 
  0.9912950  0.2364611  0.2401366

 Al 
  0.2331432  0.9948827  0.2627679

 Al 
  0.2410227  0.2517054  0.0071754

 Al 
  0.5093448  0.9927479  0.9925016

 Al 
  0.4850243  0.2500582  0.2493033

 Al 
  0.7580182  0.9916415  0.2310344

 Al 
  0.7441500  0.2403829  0.9921514

 Al 
  0.9810876  0.4894362  0.0035815

 Al 
  0.0299762  0.7525024  0.2409868

 Al 
  0.2434731  0.4949111  0.2447861

 Al 
  0.2573425  0.7539961  0.0129647

 Al 
  0.9957923  0.0085107  0.4949433

 Al 
  0.9994790  0.2376306  0.7432380

 Al 
  0.2418209  0.0074538  0.7597631

 Al 
  0.2406564  0.2432974  0.4952131

 Al 
  0.0044206  0.4865638  0.4810393

 Al 
  0.9989023  0.7563103  0.7451549

 Al 
  0.2455955  0.5158878  0.7774281

 Al 
  0.2603720  0.7618002  0.5037337

 Al 
  0.5060133  0.5029961  0.0203517

 Al 
  0.4995532  0.7614178  0.2583053

 Al 
  0.7667863  0.4863695  0.2806891

 Al 
  0.7635959  0.7562967  0.0043302

 Al 
  0.4879263  0.0211091  0.4948926

 Al 
  0.4993639  0.2555913  0.7373905

 Al 
  0.7328041  0.9992612  0.7515779

 Al 
  0.7483726  0.2292857  0.4845800

 Al 
  0.4997500  0.5183964  0.5018291

 Al 
  0.5179830  0.7586171  0.7794924

 Al 
  0.7506584  0.4960076  0.7343820

 Al 
  0.7503886  0.7626640  0.4937676

