32 
charge = 0 
 Al 
  0.0194966  0.9849413  0.9786199

 Al 
  0.9888199  0.2375316  0.2421910

 Al 
  0.2408519  0.9991585  0.2569502

 Al 
  0.2429471  0.2493515  0.0016348

 Al 
  0.5048488  0.9968232  0.9930697

 Al 
  0.4851208  0.2529305  0.2558883

 Al 
  0.7544280  0.9883471  0.2286756

 Al 
  0.7449087  0.2482575  0.9967365

 Al 
  0.9786941  0.4869747  0.0084946

 Al 
  0.0238317  0.7495186  0.2454866

 Al 
  0.2453195  0.4901577  0.2485879

 Al 
  0.2551643  0.7615997  0.0076791

 Al 
  0.9905859  0.9996931  0.4934347

 Al 
  0.9918519  0.2381714  0.7409980

 Al 
  0.2415982  0.0070405  0.7540085

 Al 
  0.2359227  0.2386800  0.4927306

 Al 
  0.0070009  0.4877358  0.4845775

 Al 
  0.0029206  0.7557349  0.7452663

 Al 
  0.2452403  0.5172751  0.7749369

 Al 
  0.2588659  0.7638186  0.5045654

 Al 
  0.5035902  0.5028278  0.0240644

 Al 
  0.5054836  0.7639981  0.2551681

 Al 
  0.7667430  0.4859759  0.2795617

 Al 
  0.7636169  0.7575269  0.0053302

 Al 
  0.4887852  0.0241597  0.4979679

 Al 
  0.5014640  0.2545270  0.7433184

 Al 
  0.7346629  0.9939075  0.7488342

 Al 
  0.7485929  0.2263316  0.4858485

 Al 
  0.5015036  0.5188889  0.5032758

 Al 
  0.5201599  0.7603015  0.7730632

 Al 
  0.7522437  0.4940436  0.7375452

 Al 
  0.7547362  0.7637704  0.4914868

