32 
charge = 0 
 Al 
  0.0199025  0.9852631  0.9787931

 Al 
  0.9881677  0.2377716  0.2427937

 Al 
  0.2442676  0.0010866  0.2542572

 Al 
  0.2438109  0.2483404  0.9993144

 Al 
  0.5026385  0.9991325  0.9939186

 Al 
  0.4856975  0.2539837  0.2582162

 Al 
  0.7530308  0.9874944  0.2282239

 Al 
  0.7450473  0.2512153  0.9986040

 Al 
  0.9781904  0.4862791  0.0101183

 Al 
  0.0205633  0.7481795  0.2475521

 Al 
  0.2462069  0.4885278  0.2501708

 Al 
  0.2545938  0.7642382  0.0053958

 Al 
  0.9888112  0.9958220  0.4928902

 Al 
  0.9888607  0.2387765  0.7403148

 Al 
  0.2422454  0.0067274  0.7511348

 Al 
  0.2341047  0.2374165  0.4920548

 Al 
  0.0084278  0.4885266  0.4869895

 Al 
  0.0044156  0.7551161  0.7450745

 Al 
  0.2451908  0.5174261  0.7734951

 Al 
  0.2581394  0.7643743  0.5051136

 Al 
  0.5029788  0.5027957  0.0252005

 Al 
  0.5077385  0.7648743  0.2539317

 Al 
  0.7656812  0.4863435  0.2780865

 Al 
  0.7636627  0.7573288  0.0056631

 Al 
  0.4893570  0.0243713  0.4992018

 Al 
  0.5019479  0.2543686  0.7459792

 Al 
  0.7362420  0.9922986  0.7476165

 Al 
  0.7485719  0.2255557  0.4866108

 Al 
  0.5019219  0.5188072  0.5038909

 Al 
  0.5202317  0.7601579  0.7697540

 Al 
  0.7529875  0.4933840  0.7389832

 Al 
  0.7563635  0.7640179  0.4906601

