32 
charge = 0 
 Al 
  0.0196686  0.9849809  0.9786075

 Al 
  0.9886305  0.2376095  0.2423593

 Al 
  0.2417182  0.9996510  0.2562769

 Al 
  0.2431649  0.2490916  0.0010408

 Al 
  0.5043005  0.9973813  0.9932565

 Al 
  0.4852371  0.2532090  0.2565083

 Al 
  0.7540617  0.9880922  0.2285295

 Al 
  0.7449569  0.2490384  0.9972167

 Al 
  0.9785320  0.4867754  0.0089352

 Al 
  0.0230273  0.7491770  0.2460076

 Al 
  0.2455411  0.4897183  0.2489951

 Al 
  0.2549973  0.7623100  0.0070949

 Al 
  0.9901045  0.9987092  0.4932936

 Al 
  0.9910759  0.2383087  0.7408086

 Al 
  0.2417232  0.0069662  0.7533018

 Al 
  0.2354500  0.2383211  0.4925363

 Al 
  0.0073511  0.4879202  0.4851431

 Al 
  0.0033167  0.7555987  0.7452292

 Al 
  0.2452205  0.5173383  0.7745891

 Al 
  0.2586827  0.7639770  0.5047015

 Al 
  0.5034144  0.5028142  0.0243800

 Al 
  0.5060777  0.7642344  0.2548463

 Al 
  0.7665276  0.4860403  0.2792349

 Al 
  0.7636280  0.7575170  0.0054255

 Al 
  0.4889201  0.0242773  0.4982860

 Al 
  0.5016101  0.2544701  0.7439879

 Al 
  0.7350193  0.9934570  0.7485224

 Al 
  0.7485929  0.2261039  0.4860304

 Al 
  0.5016274  0.5188840  0.5034318

 Al 
  0.5202267  0.7603101  0.7722489

 Al 
  0.7524293  0.4938642  0.7379065

 Al 
  0.7551668  0.7638508  0.4912678

