32 
charge = 0 
 Al 
  0.0197936  0.9850478  0.9786335

 Al 
  0.9884585  0.2376751  0.2425152

 Al 
  0.2425783  0.0001374  0.2556024

 Al 
  0.2433815  0.2488367  0.0004554

 Al 
  0.5037486  0.9979531  0.9934620

 Al 
  0.4853732  0.2534776  0.2571036

 Al 
  0.7537065  0.9878645  0.2284058

 Al 
  0.7449965  0.2497933  0.9976882

 Al 
  0.9783934  0.4865935  0.0093523

 Al 
  0.0222130  0.7488404  0.2465274

 Al 
  0.2457638  0.4893000  0.2493948

 Al 
  0.2548463  0.7629870  0.0065195

 Al 
  0.9896478  0.9977340  0.4931563

 Al 
  0.9903173  0.2384560  0.7406317

 Al 
  0.2418742  0.0068883  0.7525853

 Al 
  0.2349896  0.2379919  0.4923593

 Al 
  0.0077063  0.4881144  0.4857346

 Al 
  0.0036978  0.7554502  0.7451846

 Al 
  0.2452057  0.5173853  0.7742327

 Al 
  0.2584996  0.7641218  0.5048389

 Al 
  0.5032548  0.5028043  0.0246745

 Al 
  0.5066531  0.7644597  0.2545332

 Al 
  0.7662777  0.4861232  0.2788785

 Al 
  0.7636392  0.7574798  0.0055133

 Al 
  0.4890599  0.0243503  0.4985978

 Al 
  0.5017375  0.2544255  0.7446550

 Al 
  0.7354017  0.9930399  0.7482142

 Al 
  0.7485879  0.2258997  0.4862185

 Al 
  0.5017388  0.5188691  0.5035865

 Al 
  0.5202601  0.7602891  0.7714247

 Al 
  0.7526162  0.4936946  0.7382667

 Al 
  0.7555814  0.7639201  0.4910561

