32 
charge = 0 
 Al 
  0.0197292  0.9857829  0.9792807

 Al 
  0.9878583  0.2378273  0.2431402

 Al 
  0.2467192  0.0024368  0.2522487

 Al 
  0.2444396  0.2476363  0.9976796

 Al 
  0.5009752  0.0009727  0.9946921

 Al 
  0.4863113  0.2546730  0.2597025

 Al 
  0.7521162  0.9871541  0.2281050

 Al 
  0.7450559  0.2531286  0.9999109

 Al 
  0.9780778  0.4859339  0.0111022

 Al 
  0.0180659  0.7472316  0.2490409

 Al 
  0.2468541  0.4875328  0.2512710

 Al 
  0.2543339  0.7658581  0.0037894

 Al 
  0.9877543  0.9930622  0.4925053

 Al 
  0.9868187  0.2393013  0.7399324

 Al 
  0.2429595  0.0064762  0.7489246

 Al 
  0.2328622  0.2367432  0.4917170

 Al 
  0.0095131  0.4891986  0.4890265

 Al 
  0.0053747  0.7545332  0.7448715

 Al 
  0.2452082  0.5173642  0.7723405

 Al 
  0.2576221  0.7646676  0.5055059

 Al 
  0.5026608  0.5028179  0.0258341

 Al 
  0.5092025  0.7654101  0.2530927

 Al 
  0.7645748  0.4867977  0.2767351

 Al 
  0.7636961  0.7569254  0.0058141

 Al 
  0.4898334  0.0240991  0.5000594

 Al 
  0.5021546  0.2543624  0.7479333

 Al 
  0.7376739  0.9914101  0.7467786

 Al 
  0.7485323  0.2252017  0.4872358

 Al 
  0.5021113  0.5186402  0.5043389

 Al 
  0.5199644  0.7597718  0.7672133

 Al 
  0.7535407  0.4929917  0.7400450

 Al 
  0.7574080  0.7640587  0.4901304

