32 
charge = 0 
 Al 
  0.0164621  0.9891132  0.9827410

 Al 
  0.9877605  0.2372927  0.2438506

 Al 
  0.2541768  0.0061371  0.2456005

 Al 
  0.2463628  0.2457156  0.9927974

 Al 
  0.4955708  0.0074984  0.9976882

 Al 
  0.4893941  0.2564192  0.2633781

 Al 
  0.7499517  0.9879127  0.2288513

 Al 
  0.7444928  0.2576754  0.0038340

 Al 
  0.9794651  0.4858386  0.0131763

 Al 
  0.0097582  0.7444458  0.2534132

 Al 
  0.2487525  0.4855020  0.2544787

 Al 
  0.2543661  0.7692528  0.9991139

 Al 
  0.9859871  0.9849958  0.4912084

 Al 
  0.9810999  0.2411985  0.7394473

 Al 
  0.2463356  0.0056482  0.7414027

 Al 
  0.2292968  0.2357631  0.4914670

 Al 
  0.0128409  0.4918729  0.4968516

 Al 
  0.0075306  0.7520185  0.7441179

 Al 
  0.2456821  0.5161378  0.7681402

 Al 
  0.2562076  0.7649782  0.5062720

 Al 
  0.5021162  0.5032536  0.0267177

 Al 
  0.5126566  0.7664546  0.2507673

 Al 
  0.7595020  0.4892320  0.2712997

 Al 
  0.7637035  0.7542931  0.0055307

 Al 
  0.4917046  0.0208344  0.5026051

 Al 
  0.5021818  0.2548995  0.7542139

 Al 
  0.7437082  0.9900339  0.7446228

 Al 
  0.7483528  0.2253874  0.4895958

 Al 
  0.5021620  0.5174472  0.5057980

 Al 
  0.5174707  0.7573647  0.7585454

 Al 
  0.7553054  0.4923308  0.7435201

 Al 
  0.7596418  0.7630538  0.4889523

