32 
charge = 0 
 Al 
  0.0174286  0.9882605  0.9818437

 Al 
  0.9876764  0.2374808  0.2437466

 Al 
  0.2527647  0.0054985  0.2469308

 Al 
  0.2460076  0.2460398  0.9937194

 Al 
  0.4966227  0.0061569  0.9970620

 Al 
  0.4886478  0.2561309  0.2627716

 Al 
  0.7502785  0.9875291  0.2285778

 Al 
  0.7446760  0.2569774  0.0030890

 Al 
  0.9789565  0.4857309  0.0128905

 Al 
  0.0114128  0.7449656  0.2526249

 Al 
  0.2484134  0.4857594  0.2538835

 Al 
  0.2542634  0.7687986  0.9999765

 Al 
  0.9861183  0.9864574  0.4914781

 Al 
  0.9821234  0.2408160  0.7394473

 Al 
  0.2455633  0.0058104  0.7429187

 Al 
  0.2299515  0.2358324  0.4914225

 Al 
  0.0122321  0.4912851  0.4951747

 Al 
  0.0072261  0.7525828  0.7442552

 Al 
  0.2455287  0.5165103  0.7690250

 Al 
  0.2564465  0.7649968  0.5062138

 Al 
  0.5021868  0.5031162  0.0266868

 Al 
  0.5121343  0.7663371  0.2511843

 Al 
  0.7606604  0.4886392  0.2724717

 Al 
  0.7637221  0.7549589  0.0056928

 Al 
  0.4912913  0.0217625  0.5021237

 Al 
  0.5022363  0.2547312  0.7529801

 Al 
  0.7423618  0.9901478  0.7449693

 Al 
  0.7483899  0.2251807  0.4890872

 Al 
  0.5022090  0.5177677  0.5055059

 Al 
  0.5181414  0.7579439  0.7603089

 Al 
  0.7549663  0.4923816  0.7428259

 Al 
  0.7593646  0.7634164  0.4891119

