32 
charge = 0 
 Al 
  0.0169645  0.9886751  0.9822806

 Al 
  0.9877122  0.2373917  0.2438010

 Al 
  0.2534751  0.0058240  0.2462663

 Al 
  0.2461871  0.2458740  0.9932553

 Al 
  0.4960943  0.0068252  0.9973739

 Al 
  0.4890129  0.2562782  0.2630823

 Al 
  0.7501089  0.9877061  0.2287077

 Al 
  0.7445881  0.2573387  0.0034639

 Al 
  0.9791953  0.4857767  0.0130414

 Al 
  0.0105849  0.7447032  0.2530246

 Al 
  0.2485855  0.4856220  0.2541842

 Al 
  0.2543092  0.7690387  0.9995409

 Al 
  0.9860378  0.9857173  0.4913445

 Al 
  0.9816049  0.2410079  0.7394411

 Al 
  0.2459445  0.0057287  0.7421613

 Al 
  0.2296211  0.2357915  0.4914385

 Al 
  0.0125402  0.4915759  0.4960064

 Al 
  0.0073858  0.7523043  0.7441847

 Al 
  0.2456005  0.5163321  0.7685857

 Al 
  0.2563239  0.7649931  0.5062497

 Al 
  0.5021496  0.5031818  0.0267115

 Al 
  0.5124053  0.7664014  0.2509740

 Al 
  0.7600898  0.4889288  0.2718900

 Al 
  0.7637147  0.7546334  0.0056185

 Al 
  0.4914955  0.0213145  0.5023662

 Al 
  0.5022115  0.2548116  0.7535988

 Al 
  0.7430276  0.9900822  0.7447911

 Al 
  0.7483714  0.2252735  0.4893384

 Al 
  0.5021880  0.5176118  0.5056519

 Al 
  0.5178159  0.7576580  0.7594290

 Al 
  0.7551371  0.4923506  0.7431724

 Al 
  0.7595144  0.7632469  0.4890278

