32 
charge = 0 
 Al 
  0.0182417  0.9874981  0.9810455

 Al 
  0.9876405  0.2376306  0.2436278

 Al 
  0.2513143  0.0048092  0.2482600

 Al 
  0.2456339  0.2463962  0.9946636

 Al 
  0.4976919  0.0048302  0.9964445

 Al 
  0.4879684  0.2558128  0.2621083

 Al 
  0.7506571  0.9872605  0.2283625

 Al 
  0.7448245  0.2561779  0.0023279

 Al 
  0.9785691  0.4856851  0.0125452

 Al 
  0.0130711  0.7455002  0.2517895

 Al 
  0.2480508  0.4860898  0.2532684

 Al 
  0.2542040  0.7682380  0.0008712

 Al 
  0.9863633  0.9879981  0.4917417

 Al 
  0.9832050  0.2404324  0.7394956

 Al 
  0.2448344  0.0059737  0.7444297

 Al 
  0.2306334  0.2359586  0.4914225

 Al 
  0.0115885  0.4907232  0.4935511

 Al 
  0.0068598  0.7531174  0.7444050

 Al 
  0.2454074  0.5168172  0.7698852

 Al 
  0.2567076  0.7649745  0.5060999

 Al 
  0.5022697  0.5030060  0.0265828

 Al 
  0.5115304  0.7661725  0.2516224

 Al 
  0.7617519  0.4880984  0.2736077

 Al 
  0.7637283  0.7555591  0.0058005

 Al 
  0.4908990  0.0225558  0.5016323

 Al 
  0.5022660  0.2545914  0.7517363

 Al 
  0.7410809  0.9903346  0.7453591

 Al 
  0.7484271  0.2250606  0.4885983

 Al 
  0.5022313  0.5180449  0.5052163

 Al 
  0.5187317  0.7584835  0.7620539

 Al 
  0.7546186  0.4924744  0.7421328

 Al 
  0.7589971  0.7636924  0.4893124

