32 
charge = 0 
 Al 
  0.0095107  0.9945857  0.9885674

 Al 
  0.9889040  0.2359425  0.2442602

 Al 
  0.2606703  0.0085689  0.2390005

 Al 
  0.2477229  0.2447602  0.9884610

 Al 
  0.4908284  0.0142988  0.0007846

 Al 
  0.4941203  0.2574378  0.2657505

 Al 
  0.7490000  0.9915177  0.2309378

 Al 
  0.7430870  0.2597062  0.0073994

 Al 
  0.9839822  0.4873038  0.0138236

 Al 
  0.0015890  0.7419558  0.2564700

 Al 
  0.2500433  0.4852841  0.2571680

 Al 
  0.2553760  0.7700473  0.9951970

 Al 
  0.9871244  0.9790901  0.4897641

 Al 
  0.9768984  0.2430115  0.7402072

 Al 
  0.2505965  0.0048933  0.7339216

 Al 
  0.2264158  0.2361121  0.4923024

 Al 
  0.0152369  0.4952329  0.5059428

 Al 
  0.0081196  0.7488565  0.7438382

 Al 
  0.2470162  0.5132184  0.7633372

 Al 
  0.2553896  0.7641577  0.5055171

 Al 
  0.5017697  0.5043995  0.0257227

 Al 
  0.5140290  0.7663222  0.2488998

 Al 
  0.7528885  0.4929372  0.2650314

 Al 
  0.7633298  0.7501262  0.0038958

 Al 
  0.4942218  0.0142815  0.5048525

 Al 
  0.5017054  0.2561680  0.7601752

 Al 
  0.7512450  0.9902963  0.7436092

 Al 
  0.7482167  0.2278006  0.4924917

 Al 
  0.5016224  0.5150983  0.5072942

 Al 
  0.5130984  0.7541310  0.7494431

 Al 
  0.7567893  0.4927627  0.7470521

 Al 
  0.7594550  0.7596963  0.4888780

