32 
charge = 0 
 Al 
  0.0103510  0.9939619  0.9878942

 Al 
  0.9887382  0.2360960  0.2442218

 Al 
  0.2600700  0.0083832  0.2396428

 Al 
  0.2476313  0.2447923  0.9888743

 Al 
  0.4912430  0.0136268  0.0004888

 Al 
  0.4935771  0.2573684  0.2655562

 Al 
  0.7490496  0.9910388  0.2306841

 Al 
  0.7432590  0.2596084  0.0070541

 Al 
  0.9833746  0.4870897  0.0138124

 Al 
  0.0023885  0.7422034  0.2562447

 Al 
  0.2499505  0.4852247  0.2569229

 Al 
  0.2552485  0.7700757  0.9955621

 Al 
  0.9868732  0.9795592  0.4899114

 Al 
  0.9772388  0.2428395  0.7400735

 Al 
  0.2501559  0.0049639  0.7346456

 Al 
  0.2266695  0.2360316  0.4921749

 Al 
  0.0150574  0.4948666  0.5049936

 Al 
  0.0081295  0.7491931  0.7438246

 Al 
  0.2468356  0.5135934  0.7638446

 Al 
  0.2554416  0.7643037  0.5056841

 Al 
  0.5018143  0.5042473  0.0259146

 Al 
  0.5139857  0.7663915  0.2490743

 Al 
  0.7535976  0.4925152  0.2656774

 Al 
  0.7633941  0.7505940  0.0041198

 Al 
  0.4939310  0.0150673  0.5046433

 Al 
  0.5017598  0.2560084  0.7596072

 Al 
  0.7504468  0.9902208  0.7436538

 Al 
  0.7482253  0.2274491  0.4921737

 Al 
  0.5016955  0.5153953  0.5071420

 Al 
  0.5135996  0.7544664  0.7503676

 Al 
  0.7566655  0.4926625  0.7466957

 Al 
  0.7596022  0.7601579  0.4888211

