32 
charge = 0 
 Al 
  0.0111616  0.9933518  0.9872395

 Al 
  0.9885835  0.2362482  0.2441847

 Al 
  0.2594575  0.0081840  0.2402913

 Al 
  0.2475274  0.2448406  0.9892926

 Al 
  0.4916749  0.0129499  0.0001881

 Al 
  0.4930486  0.2572917  0.2653520

 Al 
  0.7491090  0.9905846  0.2304391

 Al 
  0.7434261  0.2594884  0.0067051

 Al 
  0.9828028  0.4868905  0.0137914

 Al 
  0.0031941  0.7424509  0.2559997

 Al 
  0.2498478  0.4851839  0.2566717

 Al 
  0.2551247  0.7700795  0.9959321

 Al 
  0.9866529  0.9800579  0.4900599

 Al 
  0.9775989  0.2426662  0.7399522

 Al 
  0.2497166  0.0050356  0.7353794

 Al 
  0.2269318  0.2359599  0.4920561

 Al 
  0.0148619  0.4945077  0.5040493

 Al 
  0.0081246  0.7495260  0.7438221

 Al 
  0.2466648  0.5139498  0.7643471

 Al 
  0.2555010  0.7644337  0.5058277

 Al 
  0.5018551  0.5041050  0.0260841

 Al 
  0.5139213  0.7664484  0.2492513

 Al 
  0.7542993  0.4921031  0.2663222

 Al 
  0.7634511  0.7510532  0.0043315

 Al 
  0.4936501  0.0158284  0.5044292

 Al 
  0.5018143  0.2558574  0.7590293

 Al 
  0.7496560  0.9901552  0.7437119

 Al 
  0.7482340  0.2271237  0.4918618

 Al 
  0.5017635  0.5156774  0.5069885

 Al 
  0.5140884  0.7548005  0.7512920

 Al 
  0.7565356  0.4925759  0.7463393

 Al 
  0.7597198  0.7605911  0.4887803

