32 
charge = 0 
 Al 
  0.0159237  0.9895723  0.9832248

 Al 
  0.9878224  0.2371863  0.2438988

 Al 
  0.2548698  0.0064366  0.2449347

 Al 
  0.2465336  0.2455671  0.9923444

 Al 
  0.4950522  0.0081753  0.9980038

 Al 
  0.4897913  0.2565529  0.2636627

 Al 
  0.7498069  0.9881479  0.2290085

 Al 
  0.7443877  0.2579872  0.0042028

 Al 
  0.9797659  0.4859153  0.0132988

 Al 
  0.0089315  0.7441909  0.2537894

 Al 
  0.2489134  0.4853992  0.2547683

 Al 
  0.2544329  0.7694421  0.9986931

 Al 
  0.9859648  0.9842966  0.4910697

 Al 
  0.9806086  0.2413878  0.7394659

 Al 
  0.2467353  0.0055690  0.7406440

 Al 
  0.2289788  0.2357482  0.4915054

 Al 
  0.0131330  0.4921774  0.4977105

 Al 
  0.0076593  0.7517276  0.7440572

 Al 
  0.2457712  0.5159262  0.7676885

 Al 
  0.2560962  0.7649535  0.5062782

 Al 
  0.5020841  0.5033328  0.0267054

 Al 
  0.5128867  0.7664967  0.2505656

 Al 
  0.7589005  0.4895475  0.2707007

 Al 
  0.7636887  0.7539367  0.0054292

 Al 
  0.4919212  0.0203195  0.5028414

 Al 
  0.5021472  0.2549948  0.7548277

 Al 
  0.7444050  0.9900017  0.7444681

 Al 
  0.7483355  0.2255223  0.4898569

 Al 
  0.5021286  0.5172689  0.5059440

 Al 
  0.5171068  0.7570628  0.7576568

 Al 
  0.7554725  0.4923209  0.7438679

 Al 
  0.7597446  0.7628372  0.4888879

