32 
charge = 0 
 Al 
  0.0153483  0.9900537  0.9837310

 Al 
  0.9878954  0.2370712  0.2439434

 Al 
  0.2555542  0.0067249  0.2442676

 Al 
  0.2466982  0.2454284  0.9918952

 Al 
  0.4945423  0.0088535  0.9983194

 Al 
  0.4902072  0.2566791  0.2639350

 Al 
  0.7496733  0.9884127  0.2291780

 Al 
  0.7442738  0.2582731  0.0045666

 Al 
  0.9800988  0.4860081  0.0134078

 Al 
  0.0081060  0.7439384  0.2541520

 Al 
  0.2490681  0.4853151  0.2550542

 Al 
  0.2545084  0.7696055  0.9982810

 Al 
  0.9859722  0.9836184  0.4909299

 Al 
  0.9801322  0.2415759  0.7394968

 Al 
  0.2471437  0.0054898  0.7398854

 Al 
  0.2286669  0.2357445  0.4915536

 Al 
  0.0134139  0.4924892  0.4985818

 Al 
  0.0077719  0.7514294  0.7440003

 Al 
  0.2458690  0.5156972  0.7672306

 Al 
  0.2559923  0.7649163  0.5062695

 Al 
  0.5020531  0.5034194  0.0266757

 Al 
  0.5130959  0.7665264  0.2503676

 Al 
  0.7582818  0.4898755  0.2700931

 Al 
  0.7636701  0.7535654  0.0053141

 Al 
  0.4921452  0.0197738  0.5030766

 Al 
  0.5021076  0.2550963  0.7554391

 Al 
  0.7451166  0.9899844  0.7443233

 Al 
  0.7483182  0.2256807  0.4901255

 Al 
  0.5020915  0.5170808  0.5060913

 Al 
  0.5167257  0.7567546  0.7567633

 Al 
  0.7556359  0.4923222  0.7442181

 Al 
  0.7598213  0.7625959  0.4888347

