32 
charge = 0 
 Al 
  0.0140896  0.9910772  0.9848151

 Al 
  0.9880773  0.2368200  0.2440288

 Al 
  0.2568945  0.0072620  0.2429348

 Al 
  0.2470088  0.2451822  0.9910103

 Al 
  0.4935436  0.0102186  0.9989493

 Al 
  0.4910883  0.2569118  0.2644473

 Al 
  0.7494431  0.9890265  0.2295542

 Al 
  0.7440226  0.2587743  0.0052893

 Al 
  0.9808623  0.4862408  0.0135847

 Al 
  0.0064588  0.7434397  0.2548327

 Al 
  0.2493577  0.4852000  0.2556123

 Al 
  0.2546866  0.7698604  0.9974741

 Al 
  0.9860762  0.9823313  0.4906453

 Al 
  0.9792238  0.2419472  0.7395970

 Al 
  0.2479815  0.0053339  0.7383719

 Al 
  0.2280605  0.2357730  0.4916811

 Al 
  0.0139449  0.4931340  0.5003614

 Al 
  0.0079513  0.7508156  0.7439087

 Al 
  0.2460930  0.5151886  0.7662950

 Al 
  0.2558029  0.7648074  0.5061990

 Al 
  0.5019925  0.5036162  0.0265569

 Al 
  0.5134535  0.7665499  0.2499839

 Al 
  0.7570046  0.4905698  0.2688592

 Al 
  0.7636194  0.7527783  0.0050418

 Al 
  0.4926142  0.0185820  0.5035382

 Al 
  0.5020185  0.2553215  0.7566531

 Al 
  0.7465819  0.9899918  0.7440708

 Al 
  0.7482860  0.2260655  0.4906787

 Al 
  0.5019999  0.5166663  0.5063871

 Al 
  0.5159089  0.7561197  0.7549577

 Al 
  0.7559539  0.4923581  0.7449198

 Al 
  0.7598993  0.7620378  0.4887642

