32 
charge = 0 
 Al 
  0.0049490  0.9978504  0.9921489

 Al 
  0.9898842  0.2351876  0.2444644

 Al 
  0.2634238  0.0093089  0.2359784

 Al 
  0.2479679  0.2448728  0.9865044

 Al 
  0.4890884  0.0175239  0.0021496

 Al 
  0.4969902  0.2576630  0.2665883

 Al 
  0.7488652  0.9942231  0.2323103

 Al 
  0.7421514  0.2598621  0.0090763

 Al 
  0.9875093  0.4885600  0.0137159

 Al 
  0.9977427  0.7406960  0.2572670

 Al 
  0.2503750  0.4858534  0.2582892

 Al 
  0.2560517  0.7695696  0.9934768

 Al 
  0.9888124  0.9772326  0.4890476

 Al 
  0.9755433  0.2438320  0.7410636

 Al 
  0.2527462  0.0045666  0.7305034

 Al 
  0.2253156  0.2366517  0.4930845

 Al 
  0.0158816  0.4971289  0.5107111

 Al 
  0.0078499  0.7471548  0.7440770

 Al 
  0.2480855  0.5110725  0.7607383

 Al 
  0.2552151  0.7631763  0.5043401

 Al 
  0.5014715  0.5052757  0.0244518

 Al 
  0.5139263  0.7657764  0.2480496

 Al 
  0.7492946  0.4951747  0.2618051

 Al 
  0.7628855  0.7476957  0.0025890

 Al 
  0.4958183  0.0100280  0.5058079

 Al 
  0.5014529  0.2570652  0.7628187

 Al 
  0.7552473  0.9907703  0.7435795

 Al 
  0.7482105  0.2299230  0.4941773

 Al 
  0.5012165  0.5133892  0.5080615

 Al 
  0.5104698  0.7524739  0.7448753

 Al 
  0.7572732  0.4934706  0.7488243

 Al 
  0.7582842  0.7569712  0.4894250

