32 
charge = 0 
 Al 
  0.0059007  0.9971845  0.9914088

 Al 
  0.9896688  0.2353324  0.2444211

 Al 
  0.2629103  0.0091852  0.2365514

 Al 
  0.2479506  0.2448121  0.9868794

 Al 
  0.4893854  0.0169026  0.0018959

 Al 
  0.4964012  0.2576345  0.2664398

 Al 
  0.7488788  0.9936464  0.2320244

 Al 
  0.7423457  0.2598733  0.0087496

 Al 
  0.9867420  0.4882865  0.0137580

 Al 
  0.9984877  0.7409509  0.2571543

 Al 
  0.2503267  0.4857037  0.2580813

 Al 
  0.2559143  0.7697094  0.9938060

 Al 
  0.9884201  0.9775358  0.4891862

 Al 
  0.9757636  0.2436736  0.7408693

 Al 
  0.2523279  0.0046285  0.7311544

 Al 
  0.2255111  0.2365267  0.4929100

 Al 
  0.0157888  0.4967427  0.5097619

 Al 
  0.0079315  0.7474952  0.7440052

 Al 
  0.2478504  0.5115366  0.7612643

 Al 
  0.2552398  0.7634078  0.5046223

 Al 
  0.5015420  0.5050851  0.0247475

 Al 
  0.5139882  0.7659113  0.2482167

 Al 
  0.7500124  0.4947131  0.2624449

 Al 
  0.7629919  0.7481894  0.0028736

 Al 
  0.4954804  0.0109128  0.5056309

 Al 
  0.5014987  0.2568734  0.7623224

 Al 
  0.7544527  0.9906651  0.7435597

 Al 
  0.7482068  0.2294515  0.4938283

 Al 
  0.5013032  0.5137605  0.5079093

 Al 
  0.5110056  0.7527994  0.7457737

 Al 
  0.7571964  0.4932998  0.7484728

 Al 
  0.7585751  0.7575689  0.4892778

