32 
charge = 0 
 Al 
  0.9980397  0.0024739  0.9974358

 Al 
  0.9916093  0.2343671  0.2448542

 Al 
  0.2663222  0.0098671  0.2326395

 Al 
  0.2475806  0.2458418  0.9842384

 Al 
  0.4879177  0.0213529  0.0035097

 Al 
  0.5011188  0.2575999  0.2673717

 Al 
  0.7488726  0.9985409  0.2344154

 Al 
  0.7407950  0.2592656  0.0111863

 Al 
  0.9935263  0.4907096  0.0131677

 Al 
  0.9930523  0.7388718  0.2573882

 Al 
  0.2504443  0.4873608  0.2594909

 Al 
  0.2569761  0.7680486  0.9914088

 Al 
  0.9921477  0.9761188  0.4881899

 Al 
  0.9748020  0.2448517  0.7427145

 Al 
  0.2553562  0.0041891  0.7266472

 Al 
  0.2243763  0.2377271  0.4945176

 Al 
  0.0159670  0.4998119  0.5170115

 Al 
  0.0069403  0.7448839  0.7449062

 Al 
  0.2499913  0.5074439  0.7570863

 Al 
  0.2551544  0.7610613  0.5017363

 Al 
  0.5007797  0.5067880  0.0218257

 Al 
  0.5129523  0.7645042  0.2469209

 Al 
  0.7444928  0.4984902  0.2575368

 Al 
  0.7618818  0.7443146  0.0003304

 Al 
  0.4984592  0.0036855  0.5067633

 Al 
  0.5012537  0.2585194  0.7656255

 Al 
  0.7604512  0.9915425  0.7440374

 Al 
  0.7483169  0.2337570  0.4967328

 Al 
  0.5005779  0.5103943  0.5090701

 Al 
  0.5067732  0.7503651  0.7390711

 Al 
  0.7574699  0.4950584  0.7511769

 Al 
  0.7556024  0.7521954  0.4909905

