32 
charge = 0 
 Al 
  0.9904844  0.0071147  0.0031174

 Al 
  0.9939236  0.2341778  0.2456500

 Al 
  0.2678358  0.0100032  0.2306544

 Al 
  0.2460150  0.2479098  0.9826061

 Al 
  0.4887444  0.0242674  0.0038958

 Al 
  0.5052745  0.2569625  0.2677516

 Al 
  0.7488392  0.0034169  0.2370811

 Al 
  0.7395092  0.2578375  0.0130390

 Al 
  0.0011225  0.4934397  0.0120996

 Al 
  0.9890748  0.7367717  0.2562089

 Al 
  0.2500433  0.4899027  0.2603138

 Al 
  0.2577533  0.7654299  0.9895574

 Al 
  0.9966487  0.9768625  0.4875650

 Al 
  0.9757450  0.2457824  0.7450856

 Al 
  0.2573759  0.0038129  0.7241535

 Al 
  0.2243763  0.2393322  0.4964358

 Al 
  0.0147889  0.5025283  0.5227798

 Al 
  0.0054490  0.7428716  0.7465423

 Al 
  0.2525754  0.5028340  0.7532201

 Al 
  0.2551557  0.7576655  0.4975731

 Al 
  0.4995186  0.5087644  0.0178209

 Al 
  0.5109289  0.7625019  0.2457341

 Al 
  0.7399906  0.5021744  0.2533959

 Al 
  0.7601790  0.7410103  0.9973603

 Al 
  0.5020469  0.9969593  0.5070949

 Al 
  0.5013984  0.2601802  0.7670227

 Al 
  0.7650525  0.9922887  0.7450349

 Al 
  0.7486300  0.2388557  0.4997748

 Al 
  0.4998453  0.5062051  0.5099215

 Al 
  0.5030852  0.7484865  0.7341122

 Al 
  0.7569155  0.4975954  0.7535778

 Al 
  0.7516707  0.7460547  0.4938233

