32 
charge = 0 
 Al 
  0.9951067  0.0043315  0.9996498

 Al 
  0.9924410  0.2341790  0.2450943

 Al 
  0.2671291  0.0099686  0.2316494

 Al 
  0.2471276  0.2465200  0.9834959

 Al 
  0.4879548  0.0226449  0.0038154

 Al 
  0.5027833  0.2574291  0.2675721

 Al 
  0.7488850  0.0004220  0.2353708

 Al 
  0.7402616  0.2587904  0.0119623

 Al 
  0.9963319  0.4917120  0.0128150

 Al 
  0.9913791  0.7380773  0.2570949

 Al 
  0.2503440  0.4882258  0.2598646

 Al 
  0.2573152  0.7671526  0.9906552

 Al 
  0.9937924  0.9761670  0.4879065

 Al 
  0.9749344  0.2452317  0.7435511

 Al 
  0.2562460  0.0040493  0.7254517

 Al 
  0.2242327  0.2382852  0.4952156

 Al 
  0.0156861  0.5008960  0.5193963

 Al 
  0.0064155  0.7440312  0.7454346

 Al 
  0.2509195  0.5057472  0.7555839

 Al 
  0.2551582  0.7599005  0.5003082

 Al 
  0.5003688  0.5075095  0.0204359

 Al 
  0.5122902  0.7638087  0.2464630

 Al 
  0.7426551  0.4999047  0.2558809

 Al 
  0.7613101  0.7429793  0.9992513

 Al 
  0.4997327  0.0010457  0.5069935

 Al 
  0.5012574  0.2591604  0.7663928

 Al 
  0.7623744  0.9918531  0.7443716

 Al 
  0.7484097  0.2356084  0.4978652

 Al 
  0.5002995  0.5089154  0.5094401

 Al 
  0.5053030  0.7495867  0.7369648

 Al 
  0.7573598  0.4959334  0.7521125

 Al 
  0.7541953  0.7499356  0.4919360

