32 
charge = 0 
 Al 
  0.9960745  0.0037251  0.9989208

 Al 
  0.9921588  0.2342273  0.2450077

 Al 
  0.2668927  0.0099426  0.2319477

 Al 
  0.2472972  0.2462786  0.9837261

 Al 
  0.4879053  0.0222402  0.0037350

 Al 
  0.5022412  0.2574959  0.2675140

 Al 
  0.7488825  0.9997983  0.2350478

 Al 
  0.7404336  0.2589587  0.0117148

 Al 
  0.9953876  0.4913742  0.0129400

 Al 
  0.9919125  0.7383422  0.2572138

 Al 
  0.2503849  0.4879239  0.2597495

 Al 
  0.2572076  0.7674645  0.9908977

 Al 
  0.9932355  0.9761188  0.4879944

 Al 
  0.9748602  0.2451092  0.7432639

 Al 
  0.2559663  0.0040951  0.7258168

 Al 
  0.2242612  0.2380934  0.4949792

 Al 
  0.0158012  0.5005421  0.5186290

 Al 
  0.0065974  0.7443035  0.7452478

 Al 
  0.2506039  0.5063190  0.7560789

 Al 
  0.2551557  0.7603027  0.5008032

 Al 
  0.5005136  0.5072657  0.0209148

 Al 
  0.5125254  0.7640488  0.2466140

 Al 
  0.7432491  0.4994357  0.2564192

 Al 
  0.7615106  0.7434125  0.9996164

 Al 
  0.4992983  0.0019120  0.5069303

 Al 
  0.5012487  0.2589476  0.7661688

 Al 
  0.7617581  0.9917529  0.7442528

 Al 
  0.7483751  0.2349809  0.4974865

 Al 
  0.5003911  0.5094203  0.5093226

 Al 
  0.5057819  0.7498366  0.7376355

 Al 
  0.7574093  0.4956302  0.7518056

 Al 
  0.7546767  0.7506980  0.4916044

