32 
charge = 0 
 Al 
  0.9863187  0.0094253  0.0062311

 Al 
  0.9955200  0.2346654  0.2464569

 Al 
  0.2677553  0.0099005  0.2304490

 Al 
  0.2445151  0.2495161  0.9821556

 Al 
  0.4903718  0.0252104  0.0034280

 Al 
  0.5073326  0.2562918  0.2677615

 Al 
  0.7486337  0.0061074  0.2390414

 Al 
  0.7389721  0.2568363  0.0138174

 Al 
  0.0059378  0.4952317  0.0112371

 Al 
  0.9873298  0.7355279  0.2549057

 Al 
  0.2496151  0.4918222  0.2605787

 Al 
  0.2580008  0.7635030  0.9886144

 Al 
  0.9995297  0.9781991  0.4873930

 Al 
  0.9772499  0.2462477  0.7467910

 Al 
  0.2580875  0.0035295  0.7237315

 Al 
  0.2250297  0.2405438  0.4976907

 Al 
  0.0133558  0.5038810  0.5253366

 Al 
  0.0044466  0.7421068  0.7479320

 Al 
  0.2543414  0.4998886  0.7510321

 Al 
  0.2551074  0.7550864  0.4944446

 Al 
  0.4984580  0.5100428  0.0148520

 Al 
  0.5093015  0.7610638  0.2450398

 Al 
  0.7378471  0.5042882  0.2512289

 Al 
  0.7588275  0.7394238  0.9953888

 Al 
  0.5046087  0.9933580  0.5068264

 Al 
  0.5017190  0.2610799  0.7668370

 Al 
  0.7670437  0.9926006  0.7457601

 Al 
  0.7489555  0.2422516  0.5017115

 Al 
  0.4994035  0.5031719  0.5101889

 Al 
  0.5011522  0.7476140  0.7321444

 Al 
  0.7561655  0.4994419  0.7549589

 Al 
  0.7490669  0.7421452  0.4960324

