32 
charge = 0 
 Al 
  0.9847953  0.0102049  0.0073709

 Al 
  0.9961933  0.2350218  0.2468653

 Al 
  0.2675127  0.0098275  0.2305715

 Al 
  0.2438270  0.2501931  0.9821011

 Al 
  0.4912343  0.0253985  0.0030914

 Al 
  0.5080231  0.2559725  0.2677231

 Al 
  0.7484914  0.0070764  0.2399250

 Al 
  0.7388260  0.2564576  0.0140414

 Al 
  0.0078523  0.4959705  0.0108485

 Al 
  0.9867705  0.7350589  0.2542869

 Al 
  0.2494183  0.4926489  0.2606393

 Al 
  0.2580404  0.7626887  0.9882704

 Al 
  0.0006708  0.9788835  0.4873707

 Al 
  0.9780357  0.2464160  0.7475261

 Al 
  0.2582669  0.0033909  0.7238020

 Al 
  0.2254430  0.2410834  0.4981981

 Al 
  0.0126318  0.5043339  0.5261188

 Al 
  0.0040530  0.7419212  0.7485694

 Al 
  0.2550728  0.4987154  0.7501955

 Al 
  0.2550691  0.7539627  0.4930919

 Al 
  0.4979741  0.5105515  0.0135624

 Al 
  0.5085850  0.7604611  0.2447713

 Al 
  0.7371306  0.5050827  0.2504369

 Al 
  0.7582236  0.7389065  0.9945869

 Al 
  0.5057064  0.9920586  0.5066123

 Al 
  0.5018984  0.2613930  0.7665413

 Al 
  0.7676489  0.9926897  0.7460522

 Al 
  0.7491213  0.2436488  0.5025011

 Al 
  0.4992278  0.5018625  0.5102272

 Al 
  0.5004443  0.7473182  0.7316098

 Al 
  0.7557844  0.5002129  0.7555010

 Al 
  0.7480273  0.7405908  0.4969915

