32 
charge = 0 
 Al 
  0.9826754  0.0112136  0.0089674

 Al 
  0.9972402  0.2357532  0.2475781

 Al 
  0.2669348  0.0096852  0.2309527

 Al 
  0.2427194  0.2512202  0.9821519

 Al 
  0.4927318  0.0254752  0.0024281

 Al 
  0.5089129  0.2554428  0.2676179

 Al 
  0.7482043  0.0083969  0.2413866

 Al 
  0.7386850  0.2559428  0.0142790

 Al 
  0.0107000  0.4971140  0.0102136

 Al 
  0.9860626  0.7343943  0.2532684

 Al 
  0.2491040  0.4939458  0.2606851

 Al 
  0.2580305  0.7614301  0.9877803

 Al 
  0.0023625  0.9800480  0.4873880

 Al 
  0.9794082  0.2466586  0.7486907

 Al 
  0.2584365  0.0031471  0.7241572

 Al 
  0.2262351  0.2419645  0.4989642

 Al 
  0.0113831  0.5049144  0.5270296

 Al 
  0.0034837  0.7417801  0.7496102

 Al 
  0.2561903  0.4969717  0.7489728

 Al 
  0.2549849  0.7521806  0.4909683

 Al 
  0.4971833  0.5113027  0.0115168

 Al 
  0.5074427  0.7595305  0.2443753

 Al 
  0.7362012  0.5062150  0.2493156

 Al 
  0.7572459  0.7382642  0.9933790

 Al 
  0.5074365  0.9902591  0.5061804

 Al 
  0.5022214  0.2618002  0.7658668

 Al 
  0.7683555  0.9927875  0.7464804

 Al 
  0.7494097  0.2457923  0.5037053

 Al 
  0.4989629  0.4997884  0.5102012

 Al 
  0.4994369  0.7469209  0.7310777

 Al 
  0.7551260  0.5013861  0.7563128

 Al 
  0.7464903  0.7382729  0.4984976

