32 
charge = 0 
 Al 
  0.9896119  0.0076160  0.0037696

 Al 
  0.9942330  0.2342322  0.2457886

 Al 
  0.2678815  0.0099921  0.2305529

 Al 
  0.2457428  0.2482167  0.9824798

 Al 
  0.4890067  0.0245099  0.0038451

 Al 
  0.5057225  0.2568437  0.2677664

 Al 
  0.7488132  0.0039837  0.2374499

 Al 
  0.7393842  0.2576358  0.0132184

 Al 
  0.0020865  0.4937924  0.0119388

 Al 
  0.9886837  0.7365168  0.2559787

 Al 
  0.2499666  0.4902678  0.2603794

 Al 
  0.2578189  0.7650574  0.9893582

 Al 
  0.9972266  0.9770828  0.4875167

 Al 
  0.9759925  0.2458814  0.7454124

 Al 
  0.2575504  0.0037610  0.7239988

 Al 
  0.2244654  0.2395599  0.4966846

 Al 
  0.0145451  0.5028216  0.5233590

 Al 
  0.0052485  0.7426860  0.7467972

 Al 
  0.2529206  0.5022449  0.7527697

 Al 
  0.2551507  0.7571766  0.4969779

 Al 
  0.4993231  0.5090194  0.0172553

 Al 
  0.5106232  0.7622234  0.2455918

 Al 
  0.7395203  0.5026113  0.2529392

 Al 
  0.7599265  0.7406614  0.9969704

 Al 
  0.5025382  0.9961994  0.5070702

 Al 
  0.5014492  0.2603720  0.7670499

 Al 
  0.7655054  0.9923618  0.7451772

 Al 
  0.7486869  0.2395240  0.5001584

 Al 
  0.4997562  0.5056247  0.5099933

 Al 
  0.5026768  0.7482946  0.7336456

 Al 
  0.7567893  0.4979531  0.7538587

 Al 
  0.7511522  0.7452725  0.4942416

