32 
charge = 0 
 Al 
  0.9807633  0.0120192  0.0104277

 Al 
  0.9983330  0.2367445  0.2484196

 Al 
  0.2661094  0.0095082  0.2315529

 Al 
  0.2415474  0.2522388  0.9823697

 Al 
  0.4944508  0.0253057  0.0015816

 Al 
  0.5096196  0.2548624  0.2674583

 Al 
  0.7478219  0.0095466  0.2430338

 Al 
  0.7386466  0.2555257  0.0143966

 Al 
  0.0134981  0.4983021  0.0095119

 Al 
  0.9854982  0.7337879  0.2521558

 Al 
  0.2487736  0.4953010  0.2606715

 Al 
  0.2579315  0.7601356  0.9873199

 Al 
  0.0040246  0.9813561  0.4874623

 Al 
  0.9810047  0.2468950  0.7499369

 Al 
  0.2585021  0.0028513  0.7247995

 Al 
  0.2272437  0.2429397  0.4997364

 Al 
  0.0099413  0.5053710  0.5276187

 Al 
  0.0029565  0.7418049  0.7507537

 Al 
  0.2573202  0.4952626  0.7477761

 Al 
  0.2548698  0.7502908  0.4887444

 Al 
  0.4963183  0.5120303  0.0093349

 Al 
  0.5062274  0.7585738  0.2439892

 Al 
  0.7354413  0.5072657  0.2482625

 Al 
  0.7561829  0.7377914  0.9921786

 Al 
  0.5092594  0.9886404  0.5056148

 Al 
  0.5026125  0.2621194  0.7649250

 Al 
  0.7688184  0.9928444  0.7468937

 Al 
  0.7497488  0.2479939  0.5049391

 Al 
  0.4986956  0.4975868  0.5100713

 Al 
  0.4984766  0.7465658  0.7308685

 Al 
  0.7543686  0.5025580  0.7571321

 Al 
  0.7449941  0.7359821  0.5000656

