32 
charge = 0 
 Al 
  0.9801755  0.0122420  0.0108844

 Al 
  0.9987067  0.2371355  0.2487290

 Al 
  0.2657814  0.0094414  0.2317967

 Al 
  0.2411490  0.2525717  0.9824798

 Al 
  0.4950671  0.0251931  0.0012586

 Al 
  0.5098126  0.2546582  0.2673915

 Al 
  0.7476734  0.0098894  0.2436266

 Al 
  0.7386565  0.2554131  0.0144077

 Al 
  0.0144164  0.4987092  0.0092632

 Al 
  0.9853411  0.7336011  0.2517672

 Al 
  0.2486610  0.4957626  0.2606529

 Al 
  0.2578771  0.7596975  0.9871727

 Al 
  0.0045716  0.9818190  0.4874994

 Al 
  0.9815863  0.2469742  0.7503700

 Al 
  0.2585021  0.0027412  0.7250755

 Al 
  0.2276298  0.2432862  0.4999938

 Al 
  0.0094191  0.5054948  0.5277424

 Al 
  0.0027919  0.7418507  0.7511571

 Al 
  0.2576964  0.4947057  0.7473813

 Al 
  0.2548240  0.7496399  0.4879870

 Al 
  0.4960138  0.5122642  0.0085788

 Al 
  0.5058066  0.7582496  0.2438629

 Al 
  0.7352247  0.5075962  0.2479258

 Al 
  0.7558091  0.7376739  0.9917838

 Al 
  0.5098856  0.9881417  0.5053970

 Al 
  0.5027585  0.2622048  0.7645537

 Al 
  0.7689174  0.9928556  0.7470261

 Al 
  0.7498725  0.2487402  0.5053562

 Al 
  0.4986065  0.4968257  0.5100020

 Al 
  0.4981635  0.7464544  0.7308698

 Al 
  0.7540939  0.5029429  0.7574080

 Al 
  0.7445065  0.7352272  0.5005977

