32 
charge = 0 
 Al 
  0.9780865  0.0128855  0.0125514

 Al 
  0.0002339  0.2390191  0.2501077

 Al 
  0.2642369  0.0091344  0.2329650

 Al 
  0.2395525  0.2538377  0.9831172

 Al 
  0.4977018  0.0244666  0.9997859

 Al 
  0.5103609  0.2538117  0.2670610

 Al 
  0.7469841  0.0110366  0.2462316

 Al 
  0.7388273  0.2551359  0.0143124

 Al 
  0.0179669  0.5003898  0.0081877

 Al 
  0.9848485  0.7329526  0.2501473

 Al 
  0.2482142  0.4976350  0.2604921

 Al 
  0.2575528  0.7579340  0.9866232

 Al 
  0.0067039  0.9837780  0.4877085

 Al 
  0.9841245  0.2472996  0.7521930

 Al 
  0.2584142  0.0022350  0.7264702

 Al 
  0.2294280  0.2447824  0.5010198

 Al 
  0.0071383  0.5058376  0.5278749

 Al 
  0.0022189  0.7422207  0.7528600

 Al 
  0.2591691  0.4925610  0.7458208

 Al 
  0.2546050  0.7469531  0.4849116

 Al 
  0.4947292  0.5131330  0.0054341

 Al 
  0.5040679  0.7569328  0.2433716

 Al 
  0.7345416  0.5087954  0.2466425

 Al 
  0.7542275  0.7374202  0.9902579

 Al 
  0.5124573  0.9863621  0.5043958

 Al 
  0.5034169  0.2624165  0.7628013

 Al 
  0.7690387  0.9928704  0.7475249

 Al 
  0.7504220  0.2517771  0.5070516

 Al 
  0.4982550  0.4936798  0.5096035

 Al 
  0.4969407  0.7460324  0.7312163

 Al 
  0.7528959  0.5044119  0.7585181

 Al 
  0.7426402  0.7322633  0.5027437

