32 
charge = 0 
 Al 
  0.9820145  0.0115056  0.0094698

 Al 
  0.9975991  0.2360539  0.2478442

 Al 
  0.2666861  0.0096307  0.2311296

 Al 
  0.2423345  0.2515618  0.9822063

 Al 
  0.4932825  0.0254468  0.0021670

 Al 
  0.5091691  0.2552547  0.2675709

 Al 
  0.7480867  0.0088003  0.2419138

 Al 
  0.7386602  0.2557918  0.0143322

 Al 
  0.0116393  0.4975038  0.0099884

 Al 
  0.9858596  0.7341852  0.2529070

 Al 
  0.2489951  0.4943914  0.2606876

 Al 
  0.2580070  0.7610019  0.9876244

 Al 
  0.0029194  0.9804700  0.4874066

 Al 
  0.9799156  0.2467365  0.7490966

 Al 
  0.2584699  0.0030543  0.7243391

 Al 
  0.2265470  0.2422788  0.4992216

 Al 
  0.0109240  0.5050814  0.5272610

 Al 
  0.0033018  0.7417702  0.7499802

 Al 
  0.2565665  0.4963975  0.7485706

 Al 
  0.2549502  0.7515618  0.4902369

 Al 
  0.4969036  0.5115489  0.0108039

 Al 
  0.5070454  0.7592149  0.2442453

 Al 
  0.7359302  0.5065752  0.2489567

 Al 
  0.7569006  0.7380860  0.9929781

 Al 
  0.5080343  0.9896985  0.5060059

 Al 
  0.5023452  0.2619165  0.7655821

 Al 
  0.7685374  0.9928110  0.7466202

 Al 
  0.7495174  0.2465187  0.5041137

 Al 
  0.4988738  0.4990681  0.5101703

 Al 
  0.4991127  0.7467984  0.7309725

 Al 
  0.7548847  0.5017784  0.7565851

 Al 
  0.7459866  0.7375068  0.4990137

