32 
charge = 0 
 Al 
  0.9776335  0.0129833  0.0129276

 Al 
  0.0006200  0.2395698  0.2504851

 Al 
  0.2637976  0.0090491  0.2332991

 Al 
  0.2391639  0.2541322  0.9833263

 Al 
  0.4983936  0.0242154  0.9993750

 Al 
  0.5104401  0.2535951  0.2669608

 Al 
  0.7467898  0.0112668  0.2469383

 Al 
  0.7389028  0.2551148  0.0142530

 Al 
  0.0188147  0.5008217  0.0078994

 Al 
  0.9847594  0.7328189  0.2497302

 Al 
  0.2481053  0.4981028  0.2604289

 Al 
  0.2574452  0.7574959  0.9864970

 Al 
  0.0072199  0.9842879  0.4877754

 Al 
  0.9848064  0.2473838  0.7526682

 Al 
  0.2583721  0.0020927  0.7268873

 Al 
  0.2299403  0.2451809  0.5012722

 Al 
  0.0065257  0.5058846  0.5278167

 Al 
  0.0020989  0.7423581  0.7533031

 Al 
  0.2595230  0.4920536  0.7454346

 Al 
  0.2545406  0.7462687  0.4841419

 Al 
  0.4943951  0.5133285  0.0046248

 Al 
  0.5036211  0.7565999  0.2432528

 Al 
  0.7344166  0.5090614  0.2463381

 Al 
  0.7538117  0.7374128  0.9898965

 Al 
  0.5131095  0.9859735  0.5041161

 Al 
  0.5035988  0.2624338  0.7623038

 Al 
  0.7690015  0.9928692  0.7476387

 Al 
  0.7505718  0.2525444  0.5074811

 Al 
  0.4981684  0.4928754  0.5094711

 Al 
  0.4966400  0.7459309  0.7313846

 Al 
  0.7525741  0.5047547  0.7587966

 Al 
  0.7421996  0.7315430  0.5032758

