32 
charge = 0 
 Al 
  0.9748069  0.0126083  0.0157331

 Al 
  0.0042708  0.2466450  0.2547795

 Al 
  0.2587322  0.0080145  0.2371318

 Al 
  0.2361207  0.2562435  0.9865093

 Al 
  0.5053846  0.0203480  0.9947243

 Al 
  0.5098498  0.2514789  0.2654794

 Al 
  0.7446513  0.0122593  0.2549218

 Al 
  0.7403359  0.2561160  0.0129610

 Al 
  0.0257797  0.5051681  0.0046656

 Al 
  0.9845156  0.7322991  0.2456883

 Al 
  0.2472291  0.5023390  0.2591567

 Al 
  0.2558524  0.7535085  0.9856319

 Al 
  0.0117556  0.9894523  0.4887827

 Al 
  0.9921576  0.2483021  0.7575417

 Al 
  0.2576358  0.0003799  0.7322397

 Al 
  0.2361876  0.2494592  0.5035295

 Al 
  0.9998998  0.5055369  0.5253775

 Al 
  0.0015259  0.7446104  0.7577397

 Al 
  0.2623410  0.4879709  0.7417727

 Al 
  0.2537201  0.7396787  0.4771014

 Al 
  0.4909905  0.5145277  0.9965336

 Al 
  0.4991300  0.7533402  0.2421440

 Al 
  0.7340924  0.5107767  0.2436872

 Al 
  0.7493713  0.7386676  0.9870464

 Al 
  0.5193307  0.9833771  0.5009183

 Al 
  0.5057472  0.2616492  0.7565269

 Al 
  0.7672999  0.9928617  0.7484444

 Al 
  0.7524021  0.2600020  0.5116405

 Al 
  0.4974184  0.4850441  0.5074019

 Al 
  0.4937478  0.7449965  0.7345503

 Al 
  0.7491065  0.5072051  0.7615489

 Al 
  0.7386119  0.7251299  0.5080924

