32 
charge = 0 
 Al 
  0.9753230  0.0129684  0.0150735

 Al 
  0.0032511  0.2442552  0.2534169

 Al 
  0.2603299  0.0083560  0.2359302

 Al 
  0.2368125  0.2557943  0.9853547

 Al 
  0.5033352  0.0217452  0.9961834

 Al 
  0.5102879  0.2520878  0.2660240

 Al 
  0.7452973  0.0122036  0.2524009

 Al 
  0.7397839  0.2555802  0.0134696

 Al 
  0.0240421  0.5038847  0.0056990

 Al 
  0.9844723  0.7322818  0.2468393

 Al 
  0.2474358  0.5011980  0.2596666

 Al 
  0.2564155  0.7545926  0.9858027

 Al 
  0.0105366  0.9879276  0.4884139

 Al 
  0.9899077  0.2480137  0.7560888

 Al 
  0.2579068  0.0009368  0.7304478

 Al 
  0.2341332  0.2481573  0.5029206

 Al 
  0.0019281  0.5057893  0.5264393

 Al 
  0.0015717  0.7437862  0.7564527

 Al 
  0.2616739  0.4889721  0.7428197

 Al 
  0.2539998  0.7415487  0.4790196

 Al 
  0.4919967  0.5143396  0.9989035

 Al 
  0.5004567  0.7542919  0.2424620

 Al 
  0.7340218  0.5104599  0.2444037

 Al 
  0.7507425  0.7380377  0.9877271

 Al 
  0.5175796  0.9839080  0.5019219

 Al 
  0.5050542  0.2620848  0.7583474

 Al 
  0.7680387  0.9928481  0.7482773

 Al 
  0.7517883  0.2578511  0.5104438

 Al 
  0.4976152  0.4872816  0.5081692

 Al 
  0.4945881  0.7452626  0.7333610

 Al 
  0.7501646  0.5066890  0.7607334

 Al 
  0.7395092  0.7268675  0.5067880

