32 
charge = 0 
 Al 
  0.9748800  0.0105329  0.0169336

 Al 
  0.0066346  0.2547906  0.2589562

 Al 
  0.2540085  0.0068239  0.2406267

 Al 
  0.2356430  0.2565207  0.9908693

 Al 
  0.5108571  0.0152195  0.9904312

 Al 
  0.5073462  0.2498750  0.2631825

 Al 
  0.7431068  0.0114029  0.2625068

 Al 
  0.7424843  0.2587595  0.0110292

 Al 
  0.0287634  0.5086011  0.0012673

 Al 
  0.9851195  0.7333733  0.2428580

 Al 
  0.2470051  0.5046569  0.2568363

 Al 
  0.2538736  0.7511546  0.9856987

 Al 
  0.0145735  0.9936476  0.4902950

 Al 
  0.9986783  0.2492067  0.7615291

 Al 
  0.2566568  0.9986535  0.7381751

 Al 
  0.2428543  0.2530147  0.5048723

 Al 
  0.9941562  0.5042127  0.5208839

 Al 
  0.0020061  0.7476016  0.7609363

 Al 
  0.2630687  0.4863163  0.7390599

 Al 
  0.2526620  0.7351827  0.4729803

 Al 
  0.4883013  0.5139993  0.9902332

 Al 
  0.4955460  0.7507128  0.2411824

 Al 
  0.7349624  0.5106703  0.2419336

 Al 
  0.7451240  0.7417603  0.9861133

 Al 
  0.5234023  0.9829464  0.4980979

 Al 
  0.5079278  0.2591679  0.7512697

 Al 
  0.7642233  0.9931328  0.7484939

 Al 
  0.7546050  0.2655859  0.5146886

 Al 
  0.4970794  0.4795802  0.5043030

 Al 
  0.4914299  0.7443221  0.7388199

 Al 
  0.7461339  0.5074687  0.7639622

 Al 
  0.7368893  0.7211054  0.5109735

