32 
charge = 0 
 Al 
  0.9751955  0.0099141  0.0170796

 Al 
  0.0069959  0.2567682  0.2598745

 Al 
  0.2530048  0.0065158  0.2413569

 Al 
  0.2358943  0.2563747  0.9920152

 Al 
  0.5119227  0.0139090  0.9895327

 Al 
  0.5065764  0.2495607  0.2625068

 Al 
  0.7428989  0.0110391  0.2641255

 Al 
  0.7430486  0.2595181  0.0105428

 Al 
  0.0289590  0.5092446  0.0004430

 Al 
  0.9853312  0.7338325  0.2423717

 Al 
  0.2470435  0.5049069  0.2561309

 Al 
  0.2533946  0.7508415  0.9858435

 Al 
  0.0150376  0.9944990  0.4907319

 Al 
  0.0000582  0.2494146  0.7623175

 Al 
  0.2564143  0.9982773  0.7395810

 Al 
  0.2444013  0.2536793  0.5050678

 Al 
  0.9930016  0.5038377  0.5196686

 Al 
  0.0022227  0.7483479  0.7614660

 Al 
  0.2629449  0.4862259  0.7385538

 Al 
  0.2523712  0.7344562  0.4724568

 Al 
  0.4877853  0.5136367  0.9890315

 Al 
  0.4948530  0.7501794  0.2409472

 Al 
  0.7352619  0.5104401  0.2416130

 Al 
  0.7441439  0.7426749  0.9861430

 Al 
  0.5239988  0.9830565  0.4975645

 Al 
  0.5084179  0.2583597  0.7501980

 Al 
  0.7634016  0.9932565  0.7484097

 Al 
  0.7551718  0.2666168  0.5152344

 Al 
  0.4970719  0.4786743  0.5034441

 Al 
  0.4909584  0.7442045  0.7398507

 Al 
  0.7455361  0.5072756  0.7645005

 Al 
  0.7366838  0.7204606  0.5113955

