32 
charge = 0 
 Al 
  0.9747599  0.0108237  0.0168469

 Al 
  0.0064304  0.2538241  0.2584946

 Al 
  0.2545171  0.0069712  0.2402554

 Al 
  0.2355688  0.2565677  0.9903210

 Al 
  0.5103039  0.0158532  0.9908903

 Al 
  0.5077038  0.2500371  0.2634944

 Al 
  0.7432330  0.0115638  0.2616851

 Al 
  0.7422133  0.2584006  0.0112655

 Al 
  0.0286025  0.5082620  0.0016682

 Al 
  0.9850230  0.7331753  0.2431216

 Al 
  0.2469989  0.5044936  0.2571593

 Al 
  0.2541087  0.7513403  0.9856455

 Al 
  0.0143198  0.9932120  0.4900921

 Al 
  0.9979778  0.2491040  0.7611207

 Al 
  0.2567757  0.9988429  0.7374845

 Al 
  0.2420883  0.2526620  0.5047597

 Al 
  0.9947527  0.5043921  0.5214643

 Al 
  0.0019108  0.7472390  0.7606430

 Al 
  0.2630897  0.4863992  0.7393260

 Al 
  0.2527981  0.7355861  0.4732996

 Al 
  0.4885699  0.5141453  0.9908618

 Al 
  0.4959074  0.7509851  0.2412962

 Al 
  0.7348262  0.5107594  0.2421019

 Al 
  0.7456079  0.7413321  0.9861306

 Al 
  0.5230570  0.9829167  0.4983800

 Al 
  0.5076828  0.2595354  0.7518217

 Al 
  0.7646181  0.9930808  0.7485224

 Al 
  0.7543327  0.2650401  0.5143978

 Al 
  0.4970942  0.4800777  0.5047089

 Al 
  0.4916712  0.7443852  0.7383125

 Al 
  0.7464420  0.5075330  0.7636936

 Al 
  0.7370143  0.7214618  0.5107334

