32 
charge = 0 
 Al 
  0.9745706  0.0120662  0.0162504

 Al 
  0.0051854  0.2492129  0.2561692

 Al 
  0.2571296  0.0076469  0.2383273

 Al 
  0.2356802  0.2565133  0.9878174

 Al 
  0.5073301  0.0187850  0.9932627

 Al 
  0.5092025  0.2509059  0.2648334

 Al 
  0.7440498  0.0121318  0.2574761

 Al 
  0.7409757  0.2568375  0.0123744

 Al 
  0.0271558  0.5063970  0.0035840

 Al 
  0.9846443  0.7324835  0.2446327

 Al 
  0.2470855  0.5033130  0.2585231

 Al 
  0.2552324  0.7525630  0.9855539

 Al 
  0.0128335  0.9909200  0.4892134

 Al 
  0.9943827  0.2485978  0.7589439

 Al 
  0.2573338  0.9998057  0.7341394

 Al 
  0.2383434  0.2507252  0.5040604

 Al 
  0.9979048  0.5051780  0.5240780

 Al 
  0.0015878  0.7455324  0.7589340

 Al 
  0.2628075  0.4871912  0.7407913

 Al 
  0.2534070  0.7379746  0.4754307

 Al 
  0.4900314  0.5145426  0.9942812

 Al 
  0.4978590  0.7524231  0.2418308

 Al 
  0.7342842  0.5109165  0.2430399

 Al 
  0.7479791  0.7395042  0.9865452

 Al 
  0.5209099  0.9830503  0.4999257

 Al 
  0.5064638  0.2610242  0.7547139

 Al 
  0.7664027  0.9929075  0.7485372

 Al 
  0.7530753  0.2620242  0.5127580

 Al 
  0.4972576  0.4829897  0.5065034

 Al 
  0.4929385  0.7447490  0.7358806

 Al 
  0.7480731  0.5075058  0.7623558

 Al 
  0.7378806  0.7235855  0.5092322

