32 
charge = 0 
 Al 
  0.9758539  0.0089055  0.0172380

 Al 
  0.0074217  0.2598386  0.2612371

 Al 
  0.2515420  0.0060108  0.2424187

 Al 
  0.2365267  0.2560245  0.9938592

 Al 
  0.5134251  0.0118261  0.9882394

 Al 
  0.5052893  0.2491114  0.2613559

 Al 
  0.7427169  0.0103943  0.2664695

 Al 
  0.7439508  0.2607433  0.0097866

 Al 
  0.0289293  0.5101084  0.9991473

 Al 
  0.9856938  0.7346802  0.2417368

 Al 
  0.2471635  0.5050839  0.2549230

 Al 
  0.2526620  0.7505297  0.9861616

 Al 
  0.0156354  0.9957329  0.4914757

 Al 
  0.0020865  0.2497314  0.7634276

 Al 
  0.2560356  0.9977266  0.7417467

 Al 
  0.2467576  0.2545617  0.5052918

 Al 
  0.9913742  0.5032399  0.5177194

 Al 
  0.0026075  0.7495174  0.7621170

 Al 
  0.2625563  0.4862754  0.7378583

 Al 
  0.2518898  0.7335701  0.4719667

 Al 
  0.4870675  0.5129090  0.9873731

 Al 
  0.4938902  0.7494183  0.2405648

 Al 
  0.7357668  0.5099599  0.2411712

 Al 
  0.7426390  0.7441909  0.9863509

 Al 
  0.5246411  0.9833449  0.4968640

 Al 
  0.5091468  0.2569613  0.7486709

 Al 
  0.7620922  0.9934966  0.7482154

 Al 
  0.7560740  0.2680078  0.5159547

 Al 
  0.4971190  0.4775481  0.5020321

 Al 
  0.4902777  0.7440597  0.7414225

 Al 
  0.7446909  0.5068289  0.7653148

 Al 
  0.7364759  0.7196624  0.5118880

