32 
charge = 0 
 Al 
  0.9777882  0.0066581  0.0173642

 Al 
  0.0078412  0.2663197  0.2638830

 Al 
  0.2487748  0.0048116  0.2444297

 Al 
  0.2387468  0.2548983  0.9980112

 Al 
  0.5160722  0.0072645  0.9859091

 Al 
  0.5022734  0.2482513  0.2584785

 Al 
  0.7429211  0.0087916  0.2707787

 Al 
  0.7459606  0.2634177  0.0081877

 Al 
  0.0277016  0.5114326  0.9963034

 Al 
  0.9865613  0.7369709  0.2408160

 Al 
  0.2476511  0.5047102  0.2519244

 Al 
  0.2511744  0.7504963  0.9871974

 Al 
  0.0164905  0.9980768  0.4933320

 Al 
  0.0060022  0.2503824  0.7653829

 Al 
  0.2552324  0.9966821  0.7462923

 Al 
  0.2515692  0.2558512  0.5054762

 Al 
  0.9885637  0.5019962  0.5134313

 Al 
  0.0035370  0.7520308  0.7628447

 Al 
  0.2610452  0.4870229  0.7366974

 Al 
  0.2507450  0.7325467  0.4721066

 Al 
  0.4858113  0.5107346  0.9845936

 Al 
  0.4922405  0.7480422  0.2396738

 Al 
  0.7369598  0.5085478  0.2404077

 Al 
  0.7395092  0.7476858  0.9873484

 Al 
  0.5248911  0.9843089  0.4959061

 Al 
  0.5105576  0.2534887  0.7459346

 Al 
  0.7592632  0.9941884  0.7475632

 Al 
  0.7580590  0.2701735  0.5170313

 Al 
  0.4974519  0.4761757  0.4987600

 Al 
  0.4890055  0.7438951  0.7445708

 Al 
  0.7432281  0.5054317  0.7669682

 Al 
  0.7363682  0.7187157  0.5123930

