32 
charge = 0 
 Al 
  0.9819502  0.0030803  0.0170746

 Al 
  0.0073783  0.2762239  0.2673680

 Al 
  0.2451710  0.0024937  0.2471697

 Al 
  0.2443010  0.2523786  0.0050950

 Al 
  0.5189347  0.9999134  0.9834142

 Al 
  0.4970026  0.2469123  0.2526348

 Al 
  0.7449371  0.0058091  0.2758267

 Al 
  0.7493886  0.2673977  0.0056730

 Al 
  0.0230768  0.5122147  0.9914893

 Al 
  0.9881479  0.7417479  0.2403730

 Al 
  0.2490025  0.5025580  0.2461611

 Al 
  0.2490434  0.7518935  0.9898223

 Al 
  0.0169286  0.0013254  0.4971610

 Al 
  0.0113893  0.2513316  0.7675585

 Al 
  0.2539540  0.9953876  0.7534478

 Al 
  0.2586481  0.2563178  0.5050604

 Al 
  0.9858893  0.5004616  0.5065071

 Al 
  0.0050059  0.7561519  0.7622939

 Al 
  0.2571048  0.4895909  0.7355713

 Al 
  0.2486040  0.7328437  0.4751497

 Al 
  0.4843003  0.5056185  0.9819155

 Al 
  0.4905091  0.7464692  0.2381045

 Al 
  0.7390736  0.5055517  0.2395772

 Al 
  0.7348436  0.7536001  0.9901193

 Al 
  0.5222217  0.9864499  0.4958245

 Al 
  0.5123236  0.2469197  0.7428172

 Al 
  0.7549787  0.9957019  0.7459383

 Al 
  0.7612581  0.2715522  0.5176699

 Al 
  0.4986214  0.4765247  0.4929855

 Al 
  0.4874066  0.7440015  0.7488082

 Al 
  0.7418209  0.5024491  0.7692973

 Al 
  0.7367878  0.7191278  0.5120910

