32 
charge = 0 
 Al 
  0.9809292  0.0038575  0.0171935

 Al 
  0.0075912  0.2740941  0.2666848

 Al 
  0.2458962  0.0030543  0.2465942

 Al 
  0.2428791  0.2529999  0.0034850

 Al 
  0.5184409  0.0015309  0.9838312

 Al 
  0.4982031  0.2472229  0.2540741

 Al 
  0.7443085  0.0065096  0.2748948

 Al 
  0.7486003  0.2665771  0.0062287

 Al 
  0.0243602  0.5121751  0.9925882

 Al 
  0.9877766  0.7405834  0.2403668

 Al 
  0.2486449  0.5031620  0.2475298

 Al 
  0.2494938  0.7514504  0.9891342

 Al 
  0.0169200  0.0006373  0.4962069

 Al 
  0.0102668  0.2511336  0.7671650

 Al 
  0.2542399  0.9956314  0.7518613

 Al 
  0.2571407  0.2563833  0.5052225

 Al 
  0.9862890  0.5007215  0.5080343

 Al 
  0.0047027  0.7552188  0.7625959

 Al 
  0.2581209  0.4888954  0.7357519

 Al 
  0.2491127  0.7326048  0.4742005

 Al 
  0.4845998  0.5069303  0.9823437

 Al 
  0.4908099  0.7467563  0.2384585

 Al 
  0.7385860  0.5062757  0.2397220

 Al 
  0.7358274  0.7522759  0.9893966

 Al 
  0.5231461  0.9859302  0.4956958

 Al 
  0.5119895  0.2484654  0.7433877

 Al 
  0.7558846  0.9953294  0.7463554

 Al 
  0.7605539  0.2714630  0.5176303

 Al 
  0.4982934  0.4761918  0.4943171

 Al 
  0.4877160  0.7439446  0.7479654

 Al 
  0.7420338  0.5031607  0.7688295

 Al 
  0.7366455  0.7188369  0.5122543

