32 
charge = 0 
 Al 
  0.9883422  0.9994332  0.0156651

 Al 
  0.0051445  0.2860168  0.2693815

 Al 
  0.2420375  0.9989703  0.2501733

 Al 
  0.2533550  0.2483800  0.0135909

 Al 
  0.5196711  0.9921390  0.9829786

 Al 
  0.4908334  0.2448381  0.2434075

 Al 
  0.7501782  0.0017153  0.2786570

 Al 
  0.7539565  0.2703789  0.0028414

 Al 
  0.0136565  0.5110923  0.9855539

 Al 
  0.9903111  0.7487810  0.2415994

 Al 
  0.2514863  0.4987154  0.2382741

 Al 
  0.2466833  0.7553339  0.9947478

 Al 
  0.0160636  0.0049218  0.5036186

 Al 
  0.0167442  0.2522066  0.7686761

 Al 
  0.2524033  0.9947379  0.7619177

 Al 
  0.2658396  0.2540877  0.5035258

 Al 
  0.9861158  0.5007574  0.4990446

 Al 
  0.0060096  0.7613138  0.7586035

 Al 
  0.2503762  0.4944706  0.7352693

 Al 
  0.2456153  0.7356542  0.4829055

 Al 
  0.4830899  0.4966450  0.9812398

 Al 
  0.4897740  0.7455732  0.2365155

 Al 
  0.7417665  0.5013786  0.2392567

 Al 
  0.7308376  0.7601839  0.9950299

 Al 
  0.5134585  0.9894770  0.4978355

 Al 
  0.5133026  0.2382110  0.7410784

 Al 
  0.7510136  0.9979060  0.7432503

 Al 
  0.7647208  0.2695498  0.5168507

 Al 
  0.5010977  0.4810690  0.4855069

 Al 
  0.4863794  0.7444631  0.7519393

 Al 
  0.7417764  0.4986436  0.7706661

 Al 
  0.7379585  0.7229580  0.5103992

