32 
charge = 0 
 Al 
  0.9846134  0.0013069  0.0166291

 Al 
  0.0066111  0.2810443  0.2687008

 Al 
  0.2436018  0.0010334  0.2485112

 Al 
  0.2480904  0.2507463  0.0089785

 Al 
  0.5197267  0.9961697  0.9827905

 Al 
  0.4941241  0.2460918  0.2488280

 Al 
  0.7468826  0.0040468  0.2775828

 Al 
  0.7513539  0.2691030  0.0043562

 Al 
  0.0194112  0.5119969  0.9888137

 Al 
  0.9890785  0.7447478  0.2406465

 Al 
  0.2499963  0.5009146  0.2427169

 Al 
  0.2479914  0.7532263  0.9917442

 Al 
  0.0167442  0.0029380  0.4997426

 Al 
  0.0139263  0.2517685  0.7682862

 Al 
  0.2532585  0.9949322  0.7572484

 Al 
  0.2620823  0.2557373  0.5045159

 Al 
  0.9854438  0.5001535  0.5029516

 Al 
  0.0056198  0.7584365  0.7611108

 Al 
  0.2543587  0.4915326  0.7352916

 Al 
  0.2473157  0.7337842  0.4780494

 Al 
  0.4836580  0.5020296  0.9812645

 Al 
  0.4899869  0.7459297  0.2372927

 Al 
  0.7402752  0.5037226  0.2393372

 Al 
  0.7327051  0.7567200  0.9920920

 Al 
  0.5191599  0.9877679  0.4964581

 Al 
  0.5129585  0.2430734  0.7417442

 Al 
  0.7529788  0.9966598  0.7448233

 Al 
  0.7628954  0.2712180  0.5175276

 Al 
  0.4995768  0.4779466  0.4896973

 Al 
  0.4867940  0.7441921  0.7505445

 Al 
  0.7415573  0.5007042  0.7702156

 Al 
  0.7372246  0.7203245  0.5115069

