32 
charge = 0 
 Al 
  0.9867606  0.0001361  0.0161267

 Al 
  0.0058141  0.2841741  0.2692775

 Al 
  0.2426192  0.9998490  0.2494864

 Al 
  0.2511534  0.2494047  0.0117680

 Al 
  0.5198678  0.9936624  0.9827471

 Al 
  0.4921044  0.2453913  0.2457118

 Al 
  0.7487129  0.0026843  0.2783847

 Al 
  0.7528687  0.2700089  0.0034330

 Al 
  0.0161762  0.5115477  0.9868608

 Al 
  0.9897963  0.7471016  0.2411155

 Al 
  0.2508453  0.4996102  0.2400945

 Al 
  0.2472241  0.7544230  0.9934285

 Al 
  0.0164088  0.0041087  0.5019355

 Al 
  0.0156416  0.2520457  0.7685981

 Al 
  0.2527486  0.9947540  0.7600218

 Al 
  0.2643879  0.2548958  0.5039726

 Al 
  0.9856505  0.5003379  0.5005383

 Al 
  0.0059155  0.7601393  0.7597829

 Al 
  0.2520779  0.4931984  0.7352309

 Al 
  0.2463195  0.7347941  0.4807472

 Al 
  0.4832793  0.4989728  0.9811395

 Al 
  0.4897975  0.7456747  0.2367841

 Al 
  0.7411663  0.5023340  0.2392592

 Al 
  0.7314527  0.7588585  0.9937602

 Al 
  0.5160685  0.9887765  0.4972006

 Al 
  0.5132357  0.2401886  0.7412492

 Al 
  0.7517276  0.9973962  0.7439137

 Al 
  0.7640142  0.2704198  0.5172009

 Al 
  0.5004331  0.4795951  0.4872271

 Al 
  0.4864920  0.7443580  0.7514913

 Al 
  0.7416081  0.4994518  0.7706079

 Al 
  0.7376318  0.7217068  0.5109042

