32 
charge = 0 
 Al 
  0.9898916  0.9988887  0.0151304

 Al 
  0.0044305  0.2874090  0.2691847

 Al 
  0.2415771  0.9981003  0.2508378

 Al 
  0.2554180  0.2473256  0.0151490

 Al 
  0.5192156  0.9909386  0.9834303

 Al 
  0.4898099  0.2442540  0.2411663

 Al 
  0.7516893  0.0007995  0.2786718

 Al 
  0.7550059  0.2704668  0.0023402

 Al 
  0.0110886  0.5105675  0.9843993

 Al 
  0.9908099  0.7503676  0.2421922

 Al 
  0.2521175  0.4979308  0.2366009

 Al 
  0.2461611  0.7562225  0.9961066

 Al 
  0.0156515  0.0056915  0.5053240

 Al 
  0.0177033  0.2523241  0.7686266

 Al 
  0.2520940  0.9948245  0.7636590

 Al 
  0.2670610  0.2531583  0.5030555

 Al 
  0.9868249  0.5014257  0.4978367

 Al 
  0.0059898  0.7623905  0.7572905

 Al 
  0.2487030  0.4957514  0.7353708

 Al 
  0.2449532  0.7365836  0.4851431

 Al 
  0.4829934  0.4943184  0.9814749

 Al 
  0.4898384  0.7455349  0.2363546

 Al 
  0.7423011  0.5005099  0.2392877

 Al 
  0.7305195  0.7612433  0.9963046

 Al 
  0.5106381  0.9901205  0.4985050

 Al 
  0.5132481  0.2364165  0.7410660

 Al 
  0.7504888  0.9983677  0.7426167

 Al 
  0.7653136  0.2684706  0.5164225

 Al 
  0.5017623  0.4827088  0.4839092

 Al 
  0.4863621  0.7445374  0.7521769

 Al 
  0.7420388  0.4979679  0.7705052

 Al 
  0.7382988  0.7243837  0.5098572

