32 
charge = 0 
 Al 
  0.9904002  0.9987439  0.0149361

 Al 
  0.0041854  0.2877716  0.2690510

 Al 
  0.2414484  0.9978120  0.2510581

 Al 
  0.2560690  0.2469643  0.0156057

 Al 
  0.5190065  0.9906106  0.9836283

 Al 
  0.4895290  0.2440523  0.2404374

 Al 
  0.7521979  0.0005062  0.2786248

 Al 
  0.7553475  0.2704309  0.0021942

 Al 
  0.0102235  0.5103807  0.9840491

 Al 
  0.9909745  0.7508750  0.2424150

 Al 
  0.2523254  0.4976981  0.2360774

 Al 
  0.2459891  0.7565083  0.9965682

 Al 
  0.0154992  0.0059403  0.5058970

 Al 
  0.0179954  0.2523526  0.7685832

 Al 
  0.2519974  0.9948753  0.7642072

 Al 
  0.2674199  0.2528241  0.5028947

 Al 
  0.9871120  0.5017041  0.4974964

 Al 
  0.0059576  0.7627271  0.7568252

 Al 
  0.2481523  0.4961796  0.7354190

 Al 
  0.2447428  0.7369091  0.4859042

 Al 
  0.4829835  0.4935461  0.9815801

 Al 
  0.4898780  0.7455349  0.2363262

 Al 
  0.7424645  0.5002413  0.2393050

 Al 
  0.7304812  0.7615366  0.9967304

 Al 
  0.5096555  0.9903210  0.4987315

 Al 
  0.5132023  0.2358608  0.7410945

 Al 
  0.7503539  0.9985100  0.7424137

 Al 
  0.7654881  0.2680684  0.5162628

 Al 
  0.5019826  0.4832892  0.4834018

 Al 
  0.4863769  0.7445535  0.7522128

 Al 
  0.7421452  0.4977724  0.7704012

 Al 
  0.7384152  0.7248985  0.5096691

