32 
charge = 0 
 Al 
  0.9919101  0.9984147  0.0142963

 Al 
  0.0034305  0.2885550  0.2684397

 Al 
  0.2411316  0.9969494  0.2517239

 Al 
  0.2578956  0.2458344  0.0167789

 Al 
  0.5182033  0.9898384  0.9843659

 Al 
  0.4888805  0.2434137  0.2383125

 Al 
  0.7537374  0.9996671  0.2783365

 Al 
  0.7563586  0.2701203  0.0018155

 Al 
  0.0076036  0.5098015  0.9831048

 Al 
  0.9914645  0.7523340  0.2431588

 Al 
  0.2529330  0.4970954  0.2346084

 Al 
  0.2454755  0.7573301  0.9979803

 Al 
  0.0150067  0.0066754  0.5076320

 Al 
  0.0187899  0.2524058  0.7683654

 Al 
  0.2517313  0.9950980  0.7657628

 Al 
  0.2683617  0.2517623  0.5023996

 Al 
  0.9881231  0.5027103  0.4966623

 Al 
  0.0057844  0.7636726  0.7553525

 Al 
  0.2465262  0.4974717  0.7356010

 Al 
  0.2441401  0.7379313  0.4882320

 Al 
  0.4830256  0.4912455  0.9819625

 Al 
  0.4900426  0.7455646  0.2363212

 Al 
  0.7429075  0.4994988  0.2393706

 Al 
  0.7305752  0.7622321  0.9980088

 Al 
  0.5065789  0.9908816  0.4994134

 Al 
  0.5129820  0.2343201  0.7412739

 Al 
  0.7500631  0.9988986  0.7418308

 Al 
  0.7659423  0.2667356  0.5157319

 Al 
  0.5026261  0.4851245  0.4819526

 Al 
  0.4864809  0.7445708  0.7521954

 Al 
  0.7425090  0.4972798  0.7699272

 Al 
  0.7387803  0.7265680  0.5090800

