32 
charge = 0 
 Al 
  0.9924076  0.9983417  0.0140649

 Al 
  0.0031731  0.2887159  0.2681649

 Al 
  0.2410475  0.9966611  0.2519504

 Al 
  0.2584600  0.2454396  0.0171031

 Al 
  0.5178766  0.9896503  0.9846592

 Al 
  0.4887332  0.2431897  0.2376269

 Al 
  0.7542535  0.9993998  0.2781941

 Al 
  0.7566915  0.2699458  0.0017091

 Al 
  0.0067200  0.5096047  0.9828251

 Al 
  0.9916279  0.7527994  0.2434323

 Al 
  0.2531298  0.4969284  0.2341518

 Al 
  0.2453047  0.7575875  0.9984617

 Al 
  0.0148285  0.0069167  0.5082162

 Al 
  0.0190312  0.2524132  0.7682652

 Al 
  0.2516497  0.9951958  0.7662541

 Al 
  0.2686327  0.2513898  0.5022313

 Al 
  0.9885068  0.5031013  0.4964432

 Al 
  0.0057002  0.7639659  0.7548364

 Al 
  0.2459928  0.4979048  0.7356752

 Al 
  0.2439483  0.7382889  0.4890241

 Al 
  0.4830652  0.4904844  0.9821110

 Al 
  0.4901119  0.7455844  0.2363472

 Al 
  0.7430412  0.4992723  0.2393966

 Al 
  0.7306767  0.7624029  0.9984370

 Al 
  0.5055109  0.9910537  0.4996399

 Al 
  0.5128793  0.2338486  0.7413643

 Al 
  0.7500025  0.9990161  0.7416465

 Al 
  0.7660735  0.2662504  0.5155376

 Al 
  0.5028353  0.4857668  0.4814923

 Al 
  0.4865353  0.7445659  0.7521509

 Al 
  0.7426452  0.4971474  0.7697144

 Al 
  0.7389065  0.7271682  0.5088758

