32 
charge = 0 
 Al 
  0.9963430  0.9984283  0.0118472

 Al 
  0.0010532  0.2881491  0.2646268

 Al 
  0.2407356  0.9943580  0.2539020

 Al 
  0.2619821  0.2418098  0.0183790

 Al 
  0.5142283  0.9893062  0.9879115

 Al 
  0.4889572  0.2411230  0.2326704

 Al 
  0.7583647  0.9975373  0.2762611

 Al 
  0.7593300  0.2671638  0.0012091

 Al 
  0.9994815  0.5080677  0.9812621

 Al 
  0.9929843  0.7561395  0.2461574

 Al 
  0.2545901  0.4962514  0.2310962

 Al 
  0.2439050  0.7592731  0.0025061

 Al 
  0.0132011  0.0088733  0.5130031

 Al 
  0.0205906  0.2522524  0.7669125

 Al 
  0.2510977  0.9963715  0.7697243

 Al 
  0.2700931  0.2481709  0.5008168

 Al 
  0.9923791  0.5072162  0.4956933

 Al 
  0.0045344  0.7659212  0.7503007

 Al 
  0.2418618  0.5014690  0.7365328

 Al 
  0.2426056  0.7415388  0.4956673

 Al 
  0.4838944  0.4845478  0.9835899

 Al 
  0.4908829  0.7459173  0.2370687

 Al 
  0.7438629  0.4978528  0.2396404

 Al 
  0.7327917  0.7626875  0.0019021

 Al 
  0.4962353  0.9921279  0.5013898

 Al 
  0.5115254  0.2308574  0.7426142

 Al 
  0.7500879  0.9996918  0.7403755

 Al 
  0.7667628  0.2616578  0.5136318

 Al 
  0.5043203  0.4914237  0.4781917

 Al 
  0.4873323  0.7442874  0.7511707

 Al 
  0.7439372  0.4966474  0.7669026

 Al 
  0.7400450  0.7328820  0.5070492

