32 
charge = 0 
 Al 
  0.9948777  0.9982550  0.0127543

 Al 
  0.0018551  0.2887506  0.2662356

 Al 
  0.2407802  0.9952205  0.2531360

 Al 
  0.2608881  0.2432813  0.0181823

 Al 
  0.5158099  0.9892023  0.9865007

 Al 
  0.4885637  0.2419608  0.2344018

 Al 
  0.7568326  0.9981734  0.2771472

 Al 
  0.7583424  0.2685090  0.0013254

 Al 
  0.0022289  0.5086233  0.9817014

 Al 
  0.9924620  0.7549676  0.2450213

 Al 
  0.2540728  0.4963628  0.2321172

 Al 
  0.2444372  0.7587310  0.0009480

 Al 
  0.0138545  0.0081308  0.5111888

 Al 
  0.0200795  0.2523576  0.7675375

 Al 
  0.2512846  0.9958505  0.7685176

 Al 
  0.2696909  0.2494159  0.5013613

 Al 
  0.9907703  0.5054775  0.4957750

 Al 
  0.0050777  0.7652728  0.7520779

 Al 
  0.2433790  0.5001114  0.7361529

 Al 
  0.2430672  0.7402307  0.4931117

 Al 
  0.4834686  0.4867333  0.9829810

 Al 
  0.4905524  0.7457552  0.2366875

 Al 
  0.7436018  0.4983008  0.2395451

 Al 
  0.7317237  0.7628026  0.0005940

 Al 
  0.4998602  0.9917937  0.5007512

 Al 
  0.5121467  0.2318115  0.7420388

 Al 
  0.7499443  0.9994951  0.7408037

 Al 
  0.7665759  0.2635253  0.5144226

 Al 
  0.5038105  0.4891986  0.4793476

 Al 
  0.4869586  0.7444433  0.7516608

 Al 
  0.7434162  0.4967180  0.7681996

 Al 
  0.7395871  0.7305381  0.5077756

