32 
charge = 0 
 Al 
  0.0000347  0.9996795  0.0091344

 Al 
  0.9990533  0.2843213  0.2588572

 Al 
  0.2410314  0.9922157  0.2560962

 Al 
  0.2632345  0.2372605  0.0172145

 Al 
  0.5090317  0.9906824  0.9927194

 Al 
  0.4919670  0.2384870  0.2291916

 Al 
  0.7621751  0.9963640  0.2730335

 Al 
  0.7618831  0.2617940  0.0012673

 Al 
  0.9922838  0.5069452  0.9811123

 Al 
  0.9944545  0.7586778  0.2497562

 Al 
  0.2556383  0.4967823  0.2291755

 Al 
  0.2425066  0.7600032  0.0067608

 Al 
  0.0112853  0.0108980  0.5176885

 Al 
  0.0215002  0.2517190  0.7645376

 Al 
  0.2507326  0.9981164  0.7722514

 Al 
  0.2702824  0.2449520  0.4993107

 Al 
  0.9972984  0.5126070  0.4964383

 Al 
  0.0024566  0.7670647  0.7454173

 Al 
  0.2381862  0.5051148  0.7379177

 Al 
  0.2417182  0.7455559  0.5026484

 Al 
  0.4857594  0.4792919  0.9853646

 Al 
  0.4919311  0.7466252  0.2386738

 Al 
  0.7443431  0.4972118  0.2398347

 Al 
  0.7371194  0.7612185  0.0053351

 Al 
  0.4862086  0.9925028  0.5029120

 Al 
  0.5092731  0.2293847  0.7446711

 Al 
  0.7509381  0.9998503  0.7396292

 Al 
  0.7668172  0.2560702  0.5111009

 Al 
  0.5052572  0.4976845  0.4757487

 Al 
  0.4887419  0.7435696  0.7493094

 Al 
  0.7453814  0.4971053  0.7619870

 Al 
  0.7414757  0.7402468  0.5049057

