32 
charge = 0 
 Al 
  0.9987129  0.9990879  0.0101790

 Al 
  0.9997574  0.2861133  0.2612334

 Al 
  0.2408532  0.9929719  0.2552621

 Al 
  0.2630699  0.2390513  0.0179286

 Al 
  0.5111046  0.9900141  0.9907604

 Al 
  0.4905116  0.2395364  0.2302621

 Al 
  0.7608200  0.9966969  0.2743787

 Al 
  0.7609549  0.2640921  0.0011905

 Al 
  0.9949136  0.5072843  0.9809799

 Al 
  0.9938939  0.7578400  0.2483305

 Al 
  0.2553203  0.4964494  0.2297510

 Al 
  0.2430177  0.7598658  0.0051730

 Al 
  0.0120229  0.0101393  0.5159943

 Al 
  0.0212428  0.2519566  0.7655413

 Al 
  0.2508428  0.9974184  0.7714408

 Al 
  0.2703678  0.2461042  0.4998800

 Al 
  0.9953876  0.5105119  0.4960212

 Al 
  0.0033402  0.7667467  0.7472316

 Al 
  0.2394758  0.5037610  0.7373335

 Al 
  0.2419831  0.7439706  0.5000384

 Al 
  0.4849376  0.4811259  0.9846926

 Al 
  0.4915153  0.7463084  0.2379882

 Al 
  0.7441946  0.4973529  0.2397802

 Al 
  0.7352742  0.7619450  0.0040728

 Al 
  0.4899559  0.9924571  0.5023774

 Al 
  0.5102037  0.2297485  0.7438270

 Al 
  0.7505606  0.9998540  0.7398297

 Al 
  0.7668742  0.2582323  0.5121133

 Al 
  0.5049899  0.4953233  0.4765321

 Al 
  0.4881491  0.7438864  0.7500792

 Al 
  0.7448480  0.4968306  0.7640637

 Al 
  0.7409039  0.7373236  0.5057324

