32 
charge = 0 
 Al 
  0.0008453  0.0001361  0.0084476

 Al 
  0.9986350  0.2829291  0.2571865

 Al 
  0.2411910  0.9917640  0.2566445

 Al 
  0.2631392  0.2360477  0.0165784

 Al 
  0.5076184  0.9911910  0.9940931

 Al 
  0.4931291  0.2377630  0.2286644

 Al 
  0.7630031  0.9962242  0.2720670

 Al 
  0.7624610  0.2601096  0.0013428

 Al 
  0.9906255  0.5067868  0.9813277

 Al 
  0.9948270  0.7591468  0.2507289

 Al 
  0.2557868  0.4970756  0.2288934

 Al 
  0.2421873  0.7599958  0.0077818

 Al 
  0.0107953  0.0113942  0.5187342

 Al 
  0.0216066  0.2515445  0.7638075

 Al 
  0.2506831  0.9985904  0.7726808

 Al 
  0.2701203  0.2442552  0.4989345

 Al 
  0.9985694  0.5139919  0.4967761

 Al 
  0.0018044  0.7671935  0.7442664

 Al 
  0.2374140  0.5059861  0.7383496

 Al 
  0.2415957  0.7466450  0.5043377

 Al 
  0.4863806  0.4782003  0.9857965

 Al 
  0.4922157  0.7468714  0.2391664

 Al 
  0.7444285  0.4971833  0.2398557

 Al 
  0.7384585  0.7606455  0.0061371

 Al 
  0.4838003  0.9924682  0.5032387

 Al 
  0.5086147  0.2292671  0.7452601

 Al 
  0.7512054  0.9998057  0.7395599

 Al 
  0.7667257  0.2546310  0.5103980

 Al 
  0.5053723  0.4992216  0.4753354

 Al 
  0.4891726  0.7433357  0.7487761

 Al 
  0.7457168  0.4973479  0.7604809

 Al 
  0.7418742  0.7422541  0.5043525

