32 
charge = 0 
 Al 
  0.0027919  0.0016620  0.0065603

 Al 
  0.9977080  0.2781088  0.2521014

 Al 
  0.2418123  0.9907406  0.2581642

 Al 
  0.2619796  0.2325788  0.0141342

 Al 
  0.5035221  0.9927578  0.9982946

 Al 
  0.4972687  0.2355935  0.2280444

 Al 
  0.7650215  0.9962254  0.2689446

 Al 
  0.7639201  0.2546223  0.0016039

 Al 
  0.9863274  0.5066742  0.9825330

 Al 
  0.9959037  0.7600898  0.2536013

 Al 
  0.2558698  0.4981845  0.2285382

 Al 
  0.2413705  0.7595131  0.0105007

 Al 
  0.0094055  0.0127803  0.5212712

 Al 
  0.0215918  0.2510037  0.7614462

 Al 
  0.2506856  0.9999356  0.7733701

 Al 
  0.2691575  0.2426699  0.4978565

 Al 
  0.0021237  0.5177838  0.4978739

 Al 
  0.9996126  0.7671638  0.7413346

 Al 
  0.2356443  0.5083337  0.7398458

 Al 
  0.2415029  0.7499257  0.5089228

 Al 
  0.4885006  0.4756831  0.9869264

 Al 
  0.4930870  0.7477749  0.2407010

 Al 
  0.7446513  0.4973702  0.2398495

 Al 
  0.7427219  0.7586840  0.0082409

 Al 
  0.4774231  0.9920920  0.5040864

 Al 
  0.5065739  0.2294503  0.7470175

 Al 
  0.7519492  0.9994988  0.7397072

 Al 
  0.7661947  0.2505606  0.5082298

 Al 
  0.5054069  0.5034008  0.4746857

 Al 
  0.4905859  0.7425833  0.7472340

 Al 
  0.7465658  0.4982748  0.7556272

 Al 
  0.7431179  0.7482798  0.5027548

