32 
charge = 0 
 Al 
  0.0041050  0.0036347  0.0046421

 Al 
  0.9973665  0.2709730  0.2458913

 Al 
  0.2428011  0.9902740  0.2597495

 Al 
  0.2589822  0.2290283  0.0104067

 Al 
  0.4989951  0.9942812  0.0035122

 Al 
  0.5035233  0.2330578  0.2293612

 Al 
  0.7665375  0.9971066  0.2644894

 Al 
  0.7650611  0.2470249  0.0017573

 Al 
  0.9824241  0.5072645  0.9851740

 Al 
  0.9972204  0.7602792  0.2569997

 Al 
  0.2551396  0.4998008  0.2290604

 Al 
  0.2406440  0.7579476  0.0130130

 Al 
  0.0078734  0.0143359  0.5229593

 Al 
  0.0207415  0.2504542  0.7581654

 Al 
  0.2510606  0.0012289  0.7728702

 Al 
  0.2669014  0.2419954  0.4965621

 Al 
  0.0058005  0.5213900  0.4990174

 Al 
  0.9962972  0.7662232  0.7391132

 Al 
  0.2346815  0.5106666  0.7423444

 Al 
  0.2419880  0.7540246  0.5135426

 Al 
  0.4916811  0.4741213  0.9879622

 Al 
  0.4942886  0.7493132  0.2426316

 Al 
  0.7450040  0.4980508  0.2397418

 Al 
  0.7483565  0.7559960  0.0101530

 Al 
  0.4716153  0.9911440  0.5049861

 Al 
  0.5039936  0.2306656  0.7490199

 Al 
  0.7524578  0.9988231  0.7408210

 Al 
  0.7649102  0.2461759  0.5053661

 Al 
  0.5048055  0.5075962  0.4751869

 Al 
  0.4926835  0.7416489  0.7457069

 Al 
  0.7473071  0.4997401  0.7489444

 Al 
  0.7447527  0.7557336  0.5008502

