32 
charge = 0 
 Al 
  0.0025246  0.0014009  0.0068511

 Al 
  0.9978244  0.2789602  0.2529367

 Al 
  0.2416972  0.9908717  0.2579278

 Al 
  0.2622519  0.2331234  0.0145810

 Al 
  0.5041743  0.9925078  0.9976016

 Al 
  0.4965286  0.2359462  0.2280469

 Al 
  0.7647369  0.9961821  0.2694805

 Al 
  0.7637110  0.2555628  0.0015618

 Al 
  0.9869635  0.5066556  0.9822793

 Al 
  0.9957292  0.7599822  0.2531360

 Al 
  0.2558945  0.4979852  0.2285493

 Al 
  0.2414905  0.7596394  0.0100923

 Al 
  0.0096245  0.0125625  0.5209198

 Al 
  0.0216301  0.2510915  0.7618509

 Al 
  0.2506683  0.9997265  0.7733194

 Al 
  0.2693641  0.2428741  0.4980286

 Al 
  0.0015717  0.5172071  0.4976944

 Al 
  0.9999988  0.7672120  0.7417554

 Al 
  0.2358769  0.5079749  0.7395760

 Al 
  0.2414893  0.7493862  0.5082211

 Al 
  0.4881268  0.4760185  0.9867593

 Al 
  0.4929409  0.7476090  0.2404460

 Al 
  0.7446141  0.4973145  0.2398569

 Al 
  0.7420016  0.7590243  0.0079278

 Al 
  0.4783761  0.9921798  0.5039590

 Al 
  0.5069143  0.2293698  0.7467341

 Al 
  0.7518390  0.9995656  0.7396428

 Al 
  0.7663098  0.2511992  0.5085924

 Al 
  0.5054317  0.5027610  0.4747302

 Al 
  0.4903408  0.7427095  0.7474754

 Al 
  0.7464432  0.4981041  0.7564551

 Al 
  0.7429088  0.7472922  0.5030110

