32 
charge = 0 
 Al 
  0.0030370  0.0019232  0.0062819

 Al 
  0.9976078  0.2772462  0.2512772

 Al 
  0.2419311  0.9906255  0.2583931

 Al 
  0.2616789  0.2320529  0.0136788

 Al 
  0.5028885  0.9929979  0.9989815

 Al 
  0.4980224  0.2352470  0.2280803

 Al 
  0.7652827  0.9962848  0.2684026

 Al 
  0.7641144  0.2536756  0.0016410

 Al 
  0.9857247  0.5067064  0.9828053

 Al 
  0.9960745  0.7601777  0.2540580

 Al 
  0.2558302  0.4983875  0.2285456

 Al 
  0.2412579  0.7593708  0.0108881

 Al 
  0.0091914  0.0129932  0.5215905

 Al 
  0.0215385  0.2509195  0.7610403

 Al 
  0.2507104  0.0001349  0.7733949

 Al 
  0.2689335  0.2424905  0.4976858

 Al 
  0.0026570  0.5183357  0.4980471

 Al 
  0.9992203  0.7670994  0.7409435

 Al 
  0.2354376  0.5086766  0.7401255

 Al 
  0.2415276  0.7504616  0.5095961

 Al 
  0.4888817  0.4753799  0.9870848

 Al 
  0.4932330  0.7479469  0.2409534

 Al 
  0.7446884  0.4974345  0.2398396

 Al 
  0.7434422  0.7583424  0.0085379

 Al 
  0.4765185  0.9919954  0.5042102

 Al 
  0.5062373  0.2295493  0.7472959

 Al 
  0.7520494  0.9994270  0.7397876

 Al 
  0.7660710  0.2499418  0.5078672

 Al 
  0.5053698  0.5040147  0.4746646

 Al 
  0.4908346  0.7424583  0.7470026

 Al 
  0.7466821  0.4984493  0.7547943

 Al 
  0.7433271  0.7492562  0.5025024

