32 
charge = 0 
 Al 
  0.0042312  0.0047956  0.0035902

 Al 
  0.9978021  0.2652987  0.2418247

 Al 
  0.2435523  0.9906032  0.2605663

 Al 
  0.2560702  0.2274986  0.0077014

 Al 
  0.4963987  0.9946698  0.0070145

 Al 
  0.5084303  0.2315739  0.2317955

 Al 
  0.7668903  0.9982971  0.2608584

 Al 
  0.7652715  0.2412863  0.0015111

 Al 
  0.9807373  0.5080850  0.9877815

 Al 
  0.9981981  0.7597322  0.2592000

 Al 
  0.2540109  0.5008799  0.2300876

 Al 
  0.2403062  0.7562126  0.0140340

 Al 
  0.0069477  0.0153148  0.5229407

 Al 
  0.0194211  0.2503069  0.7556247

 Al 
  0.2515618  0.0016373  0.7714841

 Al 
  0.2645104  0.2426526  0.4956166

 Al 
  0.0077335  0.5228652  0.4993998

 Al 
  0.9935350  0.7649250  0.7388186

 Al 
  0.2349265  0.5118571  0.7447168

 Al 
  0.2427033  0.7568400  0.5159955

 Al 
  0.4942849  0.4740805  0.9884870

 Al 
  0.4953072  0.7507240  0.2439409

 Al 
  0.7454161  0.4987204  0.2396998

 Al 
  0.7523600  0.7541384  0.0109326

 Al 
  0.4693852  0.9902963  0.5055925

 Al 
  0.5022487  0.2321420  0.7501770

 Al 
  0.7523105  0.9982476  0.7424286

 Al 
  0.7634659  0.2436773  0.5031904

 Al 
  0.5039293  0.5097805  0.4765210

 Al 
  0.4944854  0.7410784  0.7451376

 Al 
  0.7476523  0.5008898  0.7438209

 Al 
  0.7459160  0.7608943  0.4995112

