32 
charge = 0 
 Al 
  0.0042547  0.0046285  0.0037486

 Al 
  0.9976882  0.2662702  0.2424707

 Al 
  0.2434285  0.9905079  0.2604537

 Al 
  0.2565863  0.2276806  0.0081394

 Al 
  0.4967898  0.9946562  0.0064514

 Al 
  0.5075999  0.2317942  0.2313041

 Al 
  0.7668729  0.9980706  0.2614908

 Al 
  0.7652765  0.2422516  0.0015816

 Al 
  0.9809527  0.5079328  0.9873100

 Al 
  0.9980310  0.7598597  0.2588498

 Al 
  0.2542325  0.5007128  0.2298785

 Al 
  0.2403532  0.7565319  0.0139139

 Al 
  0.0070925  0.0151614  0.5230199

 Al 
  0.0196871  0.2503119  0.7560579

 Al 
  0.2514677  0.0016076  0.7717749

 Al 
  0.2649547  0.2424719  0.4957774

 Al 
  0.0074551  0.5226907  0.4993676

 Al 
  0.9940139  0.7651762  0.7387864

 Al 
  0.2348312  0.5116875  0.7442837

 Al 
  0.2425684  0.7563833  0.5156354

 Al 
  0.4938345  0.4740285  0.9884078

 Al 
  0.4951252  0.7504715  0.2437293

 Al 
  0.7453344  0.4986028  0.2396985

 Al 
  0.7517029  0.7544367  0.0108398

 Al 
  0.4696315  0.9904374  0.5054923

 Al 
  0.5025296  0.2318635  0.7500037

 Al 
  0.7523712  0.9983429  0.7421093

 Al 
  0.7637394  0.2440547  0.5035617

 Al 
  0.5041000  0.5094649  0.4762413

 Al 
  0.4941649  0.7411650  0.7451945

 Al 
  0.7476028  0.5006967  0.7446921

 Al 
  0.7457242  0.7600478  0.4997352

