32 
charge = 0 
 Al 
  0.0041372  0.0050901  0.0032857

 Al 
  0.9980805  0.2633137  0.2405648

 Al 
  0.2437973  0.9908445  0.2607656

 Al 
  0.2550059  0.2272289  0.0068412

 Al 
  0.4956611  0.9946376  0.0081184

 Al 
  0.5101084  0.2311643  0.2328820

 Al 
  0.7668754  0.9987810  0.2595565

 Al 
  0.7652096  0.2393359  0.0013291

 Al 
  0.9803797  0.5084043  0.9887716

 Al 
  0.9985409  0.7594327  0.2598832

 Al 
  0.2535283  0.5011955  0.2305517

 Al 
  0.2402208  0.7555369  0.0142159

 Al 
  0.0066655  0.0156131  0.5226907

 Al 
  0.0188295  0.2503255  0.7547423

 Al 
  0.2517586  0.0016472  0.7708319

 Al 
  0.2635662  0.2431018  0.4952861

 Al 
  0.0082422  0.5231251  0.4994233

 Al 
  0.9925486  0.7643805  0.7389832

 Al 
  0.2351827  0.5121628  0.7456326

 Al 
  0.2429904  0.7577385  0.5166613

 Al 
  0.4952131  0.4742525  0.9886392

 Al 
  0.4956871  0.7512475  0.2443617

 Al 
  0.7455968  0.4989592  0.2397146

 Al 
  0.7536632  0.7535580  0.0110774

 Al 
  0.4690424  0.9900215  0.5057918

 Al 
  0.5016967  0.2327397  0.7505000

 Al 
  0.7521459  0.9980583  0.7431352

 Al 
  0.7628744  0.2429669  0.5024293

 Al 
  0.5035555  0.5103621  0.4771509

 Al 
  0.4951549  0.7409175  0.7450745

 Al 
  0.7477464  0.5012821  0.7420474

 Al 
  0.7462947  0.7625761  0.4990570

