32 
charge = 0 
 Al 
  0.0041718  0.0038525  0.0044490

 Al 
  0.9973974  0.2700498  0.2451809

 Al 
  0.2429286  0.9902888  0.2599079

 Al 
  0.2585293  0.2287015  0.0099438

 Al 
  0.4985186  0.9943951  0.0041186

 Al 
  0.5043290  0.2327843  0.2296829

 Al 
  0.7666390  0.9972761  0.2639077

 Al 
  0.7651354  0.2460745  0.0017425

 Al 
  0.9820751  0.5073833  0.9855713

 Al 
  0.9973813  0.7602260  0.2573845

 Al 
  0.2549861  0.4999913  0.2291941

 Al 
  0.2405772  0.7576890  0.0132333

 Al 
  0.0077088  0.0145079  0.5230310

 Al 
  0.0205658  0.2504109  0.7577496

 Al 
  0.2511336  0.0013341  0.7726981

 Al 
  0.2665474  0.2420350  0.4964061

 Al 
  0.0061680  0.5217081  0.4991127

 Al 
  0.9958542  0.7660413  0.7389832

 Al 
  0.2346666  0.5108955  0.7427046

 Al 
  0.2420895  0.7545072  0.5140043

 Al 
  0.4920994  0.4740533  0.9880600

 Al 
  0.4944483  0.7495322  0.2428568

 Al 
  0.7450609  0.4981560  0.2397295

 Al 
  0.7490359  0.7556742  0.0103200

 Al 
  0.4711190  0.9910054  0.5050889

 Al 
  0.5036929  0.2308797  0.7492339

 Al 
  0.7524677  0.9987278  0.7410388

 Al 
  0.7647010  0.2457168  0.5050097

 Al 
  0.5046842  0.5080120  0.4753527

 Al 
  0.4929657  0.7415450  0.7455745

 Al 
  0.7473739  0.4999295  0.7481041

 Al 
  0.7449495  0.7566123  0.5006262

