32 
charge = 0 
 Al 
  0.0035147  0.0055888  0.0024392

 Al 
  0.9993218  0.2570021  0.2370724

 Al 
  0.2445077  0.9919880  0.2611121

 Al 
  0.2515940  0.2272004  0.0044107

 Al 
  0.4937689  0.9940436  0.0112643

 Al 
  0.5152678  0.2302163  0.2370167

 Al 
  0.7664608  0.0004542  0.2552931

 Al 
  0.7645748  0.2333226  0.0004059

 Al 
  0.9799045  0.5094129  0.9921180

 Al 
  0.9996597  0.7582174  0.2618014

 Al 
  0.2517771  0.5019813  0.2323499

 Al 
  0.2400389  0.7532387  0.0142815

 Al 
  0.0058487  0.0164051  0.5211772

 Al 
  0.0165239  0.2506287  0.7519380

 Al 
  0.2524033  0.0012549  0.7683023

 Al 
  0.2602594  0.2451846  0.4942033

 Al 
  0.0093894  0.5231833  0.4991708

 Al 
  0.9893854  0.7623954  0.7402765

 Al 
  0.2364685  0.5128273  0.7488268

 Al 
  0.2439335  0.7603114  0.5182776

 Al 
  0.4982266  0.4753069  0.9891045

 Al 
  0.4969902  0.7529701  0.2456178

 Al 
  0.7463158  0.4996956  0.2399250

 Al 
  0.7574811  0.7519553  0.0111641

 Al 
  0.4692738  0.9893433  0.5063833

 Al 
  0.5000965  0.2348621  0.7512834

 Al 
  0.7512648  0.9975397  0.7458356

 Al 
  0.7607024  0.2411452  0.4999641

 Al 
  0.5021707  0.5117247  0.4796186

 Al 
  0.4974370  0.7405265  0.7453270

 Al 
  0.7480199  0.5024788  0.7364252

 Al 
  0.7474184  0.7675994  0.4976140

