32 
charge = 0 
 Al 
  0.0033699  0.0056024  0.0023006

 Al 
  0.9995854  0.2559007  0.2365390

 Al 
  0.2446228  0.9922417  0.2611294

 Al 
  0.2510049  0.2273142  0.0040295

 Al 
  0.4934966  0.9938753  0.0117593

 Al 
  0.5161366  0.2301025  0.2378323

 Al 
  0.7663383  0.0007562  0.2545332

 Al 
  0.7643978  0.2323053  0.0001906

 Al 
  0.9799131  0.5095763  0.9927256

 Al 
  0.9998614  0.7579736  0.2620996

 Al 
  0.2514455  0.5020841  0.2327113

 Al 
  0.2400191  0.7528204  0.0142196

 Al 
  0.0057138  0.0165177  0.5208109

 Al 
  0.0160574  0.2507190  0.7514479

 Al 
  0.2525135  0.0011262  0.7678023

 Al 
  0.2596418  0.2456388  0.4940077

 Al 
  0.0095255  0.5230830  0.4990817

 Al 
  0.9888347  0.7620143  0.7406081

 Al 
  0.2367581  0.5129004  0.7494258

 Al 
  0.2440956  0.7607148  0.5184941

 Al 
  0.4987624  0.4755606  0.9891899

 Al 
  0.4972316  0.7532746  0.2458282

 Al 
  0.7464643  0.4998193  0.2399918

 Al 
  0.7580961  0.7517140  0.0111269

 Al 
  0.4695040  0.9892679  0.5064786

 Al 
  0.4998366  0.2352631  0.7513848

 Al 
  0.7510594  0.9974630  0.7463702

 Al 
  0.7602804  0.2408841  0.4995248

 Al 
  0.5019009  0.5118979  0.4801136

 Al 
  0.4978590  0.7404770  0.7454408

 Al 
  0.7480694  0.5026793  0.7354438

 Al 
  0.7476028  0.7684323  0.4973590

