32 
charge = 0 
 Al 
  0.0012190  0.0030593  0.0000446

 Al 
  0.0041830  0.2411168  0.2316519

 Al 
  0.2460175  0.9971289  0.2601134

 Al 
  0.2437429  0.2321222  0.9997253

 Al 
  0.4909955  0.9903483  0.0167702

 Al 
  0.5264529  0.2301458  0.2512747

 Al 
  0.7634721  0.0042919  0.2439273

 Al 
  0.7597545  0.2199842  0.9954693

 Al 
  0.9826382  0.5106554  0.0014281

 Al 
  0.0029343  0.7542052  0.2651156

 Al 
  0.2466796  0.5025333  0.2390030

 Al 
  0.2402319  0.7469197  0.0114673

 Al 
  0.0038043  0.0170350  0.5131875

 Al 
  0.0077509  0.2530828  0.7446834

 Al 
  0.2535827  0.9979642  0.7598114

 Al 
  0.2503849  0.2541656  0.4911551

 Al 
  0.0097941  0.5187231  0.4969692

 Al 
  0.9818016  0.7560294  0.7475323

 Al 
  0.2422665  0.5127716  0.7586196

 Al 
  0.2457106  0.7646466  0.5198666

 Al 
  0.5064205  0.4808970  0.9909497

 Al 
  0.5009084  0.7570380  0.2487637

 Al 
  0.7492327  0.5012871  0.2422392

 Al 
  0.7645661  0.7495990  0.0092533

 Al 
  0.4779825  0.9902443  0.5075009

 Al 
  0.4966041  0.2414682  0.7517648

 Al 
  0.7467724  0.9968875  0.7551025

 Al 
  0.7533501  0.2386404  0.4933778

 Al 
  0.4973417  0.5128249  0.4884127

 Al 
  0.5043698  0.7405289  0.7492055

 Al 
  0.7491300  0.5049762  0.7219643

 Al 
  0.7499047  0.7786780  0.4936513

