32 
charge = 0 
 Al 
  0.0011274  0.0026843  0.9998478

 Al 
  0.0045122  0.2402530  0.2315306

 Al 
  0.2460980  0.9975162  0.2599673

 Al 
  0.2433803  0.2326271  0.9994975

 Al 
  0.4909064  0.9900846  0.0169360

 Al 
  0.5269306  0.2302745  0.2522165

 Al 
  0.7632258  0.0044119  0.2432825

 Al 
  0.7592978  0.2193988  0.9950547

 Al 
  0.9829872  0.5105972  0.0019702

 Al 
  0.0031545  0.7539738  0.2652208

 Al 
  0.2463975  0.5024962  0.2394795

 Al 
  0.2402864  0.7465645  0.0111777

 Al 
  0.0036743  0.0169794  0.5125588

 Al 
  0.0071024  0.2532969  0.7442639

 Al 
  0.2535976  0.9977018  0.7592693

 Al 
  0.2497748  0.2548240  0.4909757

 Al 
  0.0097124  0.5182590  0.4968021

 Al 
  0.9814390  0.7556185  0.7480793

 Al 
  0.2426910  0.5126875  0.7592372

 Al 
  0.2457490  0.7647616  0.5198468

 Al 
  0.5069180  0.4813487  0.9911292

 Al 
  0.5011584  0.7572100  0.2489642

 Al 
  0.7494468  0.5013626  0.2424892

 Al 
  0.7647938  0.7495532  0.0090565

 Al 
  0.4788587  0.9904757  0.5075479

 Al 
  0.4964185  0.2418865  0.7517190

 Al 
  0.7464086  0.9968789  0.7556965

 Al 
  0.7528612  0.2385773  0.4930214

 Al 
  0.4969977  0.5127989  0.4890104

 Al 
  0.5048178  0.7405982  0.7495990

 Al 
  0.7492377  0.5050728  0.7211388

 Al 
  0.7500371  0.7792263  0.4934125

