32 
charge = 0 
 Al 
  0.0011089  0.9978355  0.9975323

 Al 
  0.0072905  0.2335998  0.2318895

 Al 
  0.2469135  0.0011868  0.2582904

 Al 
  0.2411403  0.2381726  0.9975682

 Al 
  0.4904584  0.9879065  0.0170945

 Al 
  0.5292015  0.2324823  0.2603312

 Al 
  0.7607606  0.0041792  0.2381206

 Al 
  0.7541421  0.2164757  0.9908309

 Al 
  0.9872024  0.5088498  0.0063871

 Al 
  0.0052943  0.7523130  0.2654559

 Al 
  0.2443889  0.5017969  0.2440585

 Al 
  0.2411403  0.7438704  0.0080689

 Al 
  0.0025073  0.0157467  0.5063524

 Al 
  0.0006571  0.2554527  0.7407356

 Al 
  0.2531657  0.9953579  0.7545914

 Al 
  0.2444706  0.2609809  0.4896008

 Al 
  0.0084030  0.5131045  0.4953591

 Al 
  0.9792844  0.7519256  0.7530494

 Al 
  0.2466338  0.5114153  0.7645698

 Al 
  0.2456116  0.7647208  0.5188654

 Al 
  0.5113955  0.4859920  0.9934335

 Al 
  0.5033748  0.7579229  0.2509480

 Al 
  0.7514702  0.5019182  0.2455658

 Al 
  0.7651304  0.7496139  0.0070380

 Al 
  0.4884944  0.9937850  0.5078857

 Al 
  0.4948777  0.2455906  0.7508477

 Al 
  0.7426848  0.9968430  0.7604883

 Al 
  0.7486647  0.2384498  0.4906737

 Al 
  0.4935857  0.5121541  0.4944792

 Al 
  0.5088548  0.7418667  0.7540654

 Al 
  0.7505111  0.5054044  0.7143780

 Al 
  0.7511757  0.7830887  0.4914435

