32 
charge = 0 
 Al 
  0.0009888  0.0018687  0.9994369

 Al 
  0.0051470  0.2386367  0.2313821

 Al 
  0.2462551  0.9982823  0.2596604

 Al 
  0.2427355  0.2336691  0.9990694

 Al 
  0.4907579  0.9895797  0.0171811

 Al 
  0.5277523  0.2305802  0.2540357

 Al 
  0.7627308  0.0045740  0.2420672

 Al 
  0.7583511  0.2183865  0.9942156

 Al 
  0.9837298  0.5104178  0.0029974

 Al 
  0.0035902  0.7535469  0.2653866

 Al 
  0.2458764  0.5024009  0.2404225

 Al 
  0.2404101  0.7459012  0.0105836

 Al 
  0.0034231  0.0168296  0.5113014

 Al 
  0.0058091  0.2537300  0.7434657

 Al 
  0.2535964  0.9971858  0.7582273

 Al 
  0.2486003  0.2561222  0.4906378

 Al 
  0.0095193  0.5172999  0.4964791

 Al 
  0.9807955  0.7548203  0.7491535

 Al 
  0.2435263  0.5124957  0.7604277

 Al 
  0.2457935  0.7649213  0.5197639

 Al 
  0.5078820  0.4822595  0.9915103

 Al 
  0.5016410  0.7574996  0.2493589

 Al 
  0.7498701  0.5014999  0.2430201

 Al 
  0.7651391  0.7494963  0.0086555

 Al 
  0.4806705  0.9909980  0.5076320

 Al 
  0.4960658  0.2426959  0.7516051

 Al 
  0.7456735  0.9968702  0.7568276

 Al 
  0.7519157  0.2384808  0.4923704

 Al 
  0.4963121  0.5127221  0.4901775

 Al 
  0.5056903  0.7407678  0.7504183

 Al 
  0.7494617  0.5052312  0.7195733

 Al 
  0.7502884  0.7802287  0.4929558

