32 
charge = 0 
 Al 
  0.0009170  0.0009715  0.9990025

 Al 
  0.0057472  0.2371702  0.2313499

 Al 
  0.2464086  0.9990335  0.2593362

 Al 
  0.2421947  0.2347483  0.9986684

 Al 
  0.4906440  0.9891057  0.0173147

 Al 
  0.5283897  0.2309539  0.2557596

 Al 
  0.7622370  0.0046334  0.2409485

 Al 
  0.7573610  0.2175895  0.9933691

 Al 
  0.9845255  0.5101530  0.0039491

 Al 
  0.0040221  0.7531669  0.2654906

 Al 
  0.2454148  0.5022808  0.2413494

 Al 
  0.2405562  0.7453010  0.0099735

 Al 
  0.0031818  0.0166316  0.5100527

 Al 
  0.0045196  0.2541632  0.7427169

 Al 
  0.2535530  0.9966895  0.7572422

 Al 
  0.2474865  0.2573882  0.4903297

 Al 
  0.0092891  0.5163036  0.4961735

 Al 
  0.9802584  0.7540555  0.7501906

 Al 
  0.2443382  0.5122717  0.7615539

 Al 
  0.2457972  0.7649931  0.5196240

 Al 
  0.5088040  0.4831778  0.9919286

 Al 
  0.5021039  0.7577162  0.2497512

 Al 
  0.7502834  0.5016224  0.2435919

 Al 
  0.7653421  0.7494815  0.0082484

 Al 
  0.4825454  0.9915932  0.5077063

 Al 
  0.4957391  0.2434669  0.7514591

 Al 
  0.7449347  0.9968677  0.7578771

 Al 
  0.7510185  0.2384226  0.4918061

 Al 
  0.4956314  0.5126145  0.4913061

 Al 
  0.5065269  0.7409782  0.7512772

 Al 
  0.7497017  0.5053426  0.7181216

 Al 
  0.7505260  0.7811123  0.4925313

