32 
charge = 0 
 Al 
  0.0013131  0.9966450  0.9969779

 Al 
  0.0077075  0.2326531  0.2322645

 Al 
  0.2471214  0.0018724  0.2579266

 Al 
  0.2409596  0.2393792  0.9972105

 Al 
  0.4904349  0.9875823  0.0168259

 Al 
  0.5290988  0.2331407  0.2616578

 Al 
  0.7602668  0.0038191  0.2373249

 Al 
  0.7529776  0.2165289  0.9899931

 Al 
  0.9881899  0.5082409  0.0070789

 Al 
  0.0057188  0.7521175  0.2653322

 Al 
  0.2441661  0.5016026  0.2449532

 Al 
  0.2413915  0.7435077  0.0074105

 Al 
  0.0022944  0.0153520  0.5051235

 Al 
  0.9993503  0.2558784  0.7401453

 Al 
  0.2529491  0.9949755  0.7537894

 Al 
  0.2435548  0.2621182  0.4894287

 Al 
  0.0080417  0.5119623  0.4951178

 Al 
  0.9791669  0.7512524  0.7539156

 Al 
  0.2473578  0.5110601  0.7654658

 Al 
  0.2455039  0.7644820  0.5184917

 Al 
  0.5122296  0.4869660  0.9940374

 Al 
  0.5037647  0.7578461  0.2513700

 Al 
  0.7518563  0.5020011  0.2463244

 Al 
  0.7647975  0.7496894  0.0066482

 Al 
  0.4905859  0.9946451  0.5079365

 Al 
  0.4946178  0.2462564  0.7505841

 Al 
  0.7419200  0.9968145  0.7611715

 Al 
  0.7479989  0.2385204  0.4904906

 Al 
  0.4928853  0.5119586  0.4954866

 Al 
  0.5095837  0.7422590  0.7550678

 Al 
  0.7508106  0.5053364  0.7133063

 Al 
  0.7513861  0.7835379  0.4911415

