32 
charge = 0 
 Al 
  0.0012029  0.9972489  0.9972588

 Al 
  0.0075058  0.2331122  0.2320652

 Al 
  0.2470150  0.0015309  0.2581097

 Al 
  0.2410400  0.2387716  0.9973900

 Al 
  0.4904448  0.9877395  0.0169719

 Al 
  0.5291743  0.2328016  0.2610056

 Al 
  0.7605143  0.0040122  0.2377147

 Al 
  0.7535654  0.2164757  0.9904114

 Al 
  0.9876900  0.5085565  0.0067398

 Al 
  0.0055059  0.7522103  0.2654015

 Al 
  0.2442701  0.5017016  0.2445052

 Al 
  0.2412616  0.7436822  0.0077410

 Al 
  0.0023996  0.0155562  0.5057386

 Al 
  0.0000062  0.2556656  0.7404361

 Al 
  0.2530630  0.9951624  0.7541867

 Al 
  0.2440077  0.2615526  0.4895104

 Al 
  0.0082273  0.5125390  0.4952366

 Al 
  0.9792127  0.7515878  0.7534875

 Al 
  0.2469977  0.5112420  0.7650240

 Al 
  0.2455596  0.7646094  0.5186860

 Al 
  0.5118138  0.4864759  0.9937280

 Al 
  0.5035716  0.7578932  0.2511571

 Al 
  0.7516633  0.5019603  0.2459383

 Al 
  0.7649807  0.7496510  0.0068425

 Al 
  0.4895327  0.9942070  0.5079117

 Al 
  0.4947465  0.2459247  0.7507203

 Al 
  0.7423036  0.9968306  0.7608423

 Al 
  0.7483243  0.2384808  0.4905698

 Al 
  0.4932380  0.5120588  0.4949854

 Al 
  0.5092223  0.7420561  0.7545617

 Al 
  0.7506596  0.5053760  0.7138322

 Al 
  0.7512809  0.7833263  0.4912888

