32 
charge = 0 
 Al 
  0.0043525  0.9872729  0.9924608

 Al 
  0.0087335  0.2289602  0.2367408

 Al 
  0.2496584  0.0059762  0.2554577

 Al 
  0.2415227  0.2483058  0.9945906

 Al 
  0.4905141  0.9864920  0.0127853

 Al 
  0.5234345  0.2397517  0.2678382

 Al 
  0.7567707  0.9991349  0.2332484

 Al 
  0.7440820  0.2223937  0.9849797

 Al 
  0.9958566  0.5018972  0.0104339

 Al 
  0.0086072  0.7518068  0.2630402

 Al 
  0.2443703  0.5001052  0.2509702

 Al 
  0.2440065  0.7424657  0.0028105

 Al 
  0.0010012  0.0113435  0.4967873

 Al 
  0.9901577  0.2586011  0.7369648

 Al 
  0.2503527  0.9933506  0.7489852

 Al 
  0.2384028  0.2688159  0.4894659

 Al 
  0.0047201  0.5033773  0.4936810

 Al 
  0.9811061  0.7467885  0.7584959

 Al 
  0.2517363  0.5076160  0.7701438

 Al 
  0.2446859  0.7612383  0.5143384

 Al 
  0.5179657  0.4942317  0.9997735

 Al 
  0.5059019  0.7554923  0.2548166

 Al 
  0.7544391  0.5024170  0.2529689

 Al 
  0.7594748  0.7498775  0.0043946

 Al 
  0.5055752  0.0017276  0.5081555

 Al 
  0.4929607  0.2506658  0.7480100

 Al 
  0.7366739  0.9960175  0.7632085

 Al 
  0.7453616  0.2398198  0.4917442

 Al 
  0.4877642  0.5102643  0.5019974

 Al 
  0.5139671  0.7461611  0.7625068

 Al 
  0.7529330  0.5038872  0.7082261

 Al 
  0.7529107  0.7837459  0.4899807

