32 
charge = 0 
 Al 
  0.0040184  0.9880662  0.9928556

 Al 
  0.0087842  0.2290963  0.2362952

 Al 
  0.2493664  0.0056891  0.2556482

 Al 
  0.2413853  0.2475595  0.9948121

 Al 
  0.4905017  0.9865044  0.0132295

 Al 
  0.5241906  0.2390884  0.2675301

 Al 
  0.7570652  0.9996126  0.2335095

 Al 
  0.7448381  0.2215893  0.9853114

 Al 
  0.9952020  0.5025358  0.0102421

 Al 
  0.0083746  0.7517784  0.2633149

 Al 
  0.2442416  0.5002228  0.2505000

 Al 
  0.2437342  0.7424632  0.0031756

 Al 
  0.0010928  0.0117445  0.4974481

 Al 
  0.9909027  0.2584055  0.7371615

 Al 
  0.2506250  0.9934137  0.7493441

 Al 
  0.2387444  0.2683654  0.4893718

 Al 
  0.0050369  0.5040963  0.4937936

 Al 
  0.9807794  0.7471511  0.7582211

 Al 
  0.2514195  0.5079551  0.7698666

 Al 
  0.2447379  0.7615873  0.5147691

 Al 
  0.5174929  0.4936092  0.9992092

 Al 
  0.5057683  0.7557881  0.2544985

 Al 
  0.7542349  0.5023922  0.2523415

 Al 
  0.7600688  0.7499121  0.0045456

 Al 
  0.5043661  0.0011064  0.5081518

 Al 
  0.4930944  0.2503069  0.7482612

 Al 
  0.7370786  0.9961227  0.7632073

 Al 
  0.7454458  0.2396614  0.4915041

 Al 
  0.4881912  0.5104153  0.5014876

 Al 
  0.5136590  0.7457849  0.7618942

 Al 
  0.7527808  0.5040505  0.7084860

 Al 
  0.7527783  0.7839241  0.4900129

