32 
charge = 0 
 Al 
  0.0054304  0.9849042  0.9912628

 Al 
  0.0084303  0.2287139  0.2381256

 Al 
  0.2506435  0.0067831  0.2549007

 Al 
  0.2420140  0.2505482  0.9939260

 Al 
  0.4905475  0.9865366  0.0113509

 Al 
  0.5208839  0.2418742  0.2685610

 Al 
  0.7558611  0.9976474  0.2325231

 Al 
  0.7417937  0.2251312  0.9840837

 Al 
  0.9978306  0.4998639  0.0109425

 Al 
  0.0093102  0.7519306  0.2621219

 Al 
  0.2448753  0.4997686  0.2523514

 Al 
  0.2448926  0.7425548  0.0017313

 Al 
  0.0007438  0.0100651  0.4948258

 Al 
  0.9879362  0.2591468  0.7364512

 Al 
  0.2494790  0.9932342  0.7479283

 Al 
  0.2374635  0.2700448  0.4898619

 Al 
  0.0037275  0.5012239  0.4933295

 Al 
  0.9822546  0.7456821  0.7592087

 Al 
  0.2526521  0.5065467  0.7708591

 Al 
  0.2445597  0.7601084  0.5129511

 Al 
  0.5193901  0.4961314  0.0015717

 Al 
  0.5062509  0.7545035  0.2558203

 Al 
  0.7550455  0.5024726  0.2549403

 Al 
  0.7575578  0.7496918  0.0039701

 Al 
  0.5091580  0.0036100  0.5081308

 Al 
  0.4925585  0.2517672  0.7472167

 Al 
  0.7355044  0.9956648  0.7630563

 Al 
  0.7452366  0.2403606  0.4925709

 Al 
  0.4864895  0.5098089  0.5035258

 Al 
  0.5148260  0.7473269  0.7643334

 Al 
  0.7533340  0.5033686  0.7076160

 Al 
  0.7533204  0.7829848  0.4899485

