32 
charge = 0 
 Al 
  0.0050604  0.9856876  0.9916625

 Al 
  0.0085565  0.2287684  0.2376590

 Al 
  0.2502983  0.0065244  0.2550839

 Al 
  0.2418383  0.2498020  0.9941463

 Al 
  0.4905376  0.9865081  0.0118435

 Al 
  0.5217786  0.2411465  0.2683543

 Al 
  0.7561680  0.9981486  0.2327546

 Al 
  0.7425561  0.2241671  0.9843634

 Al 
  0.9971734  0.5005594  0.0107854

 Al 
  0.0090763  0.7518836  0.2624425

 Al 
  0.2446871  0.4998762  0.2518972

 Al 
  0.2445857  0.7425115  0.0020865

 Al 
  0.0008267  0.0105020  0.4954742

 Al 
  0.9886714  0.2589736  0.7366096

 Al 
  0.2497785  0.9932602  0.7482773

 Al 
  0.2377617  0.2696574  0.4897097

 Al 
  0.0040642  0.5019380  0.4934483

 Al 
  0.9818437  0.7460547  0.7589909

 Al 
  0.2523538  0.5069105  0.7706413

 Al 
  0.2445968  0.7604970  0.5134276

 Al 
  0.5189149  0.4954940  0.0009566

 Al 
  0.5061433  0.7548488  0.2554787

 Al 
  0.7548451  0.5024566  0.2542696

 Al 
  0.7582162  0.7497686  0.0041062

 Al 
  0.5079761  0.0029813  0.5081456

 Al 
  0.4926934  0.2513972  0.7474865

 Al 
  0.7358844  0.9957873  0.7631318

 Al 
  0.7452564  0.2401700  0.4922801

 Al 
  0.4869128  0.5099611  0.5030184

 Al 
  0.5145513  0.7469346  0.7637295

 Al 
  0.7532115  0.5035444  0.7077892

 Al 
  0.7531818  0.7832768  0.4899473

