32 
charge = 0 
 Al 
  0.0058104  0.9841320  0.9908656

 Al 
  0.0082781  0.2286855  0.2385934

 Al 
  0.2510049  0.0070306  0.2547213

 Al 
  0.2421996  0.2512883  0.9937095

 Al 
  0.4905537  0.9865811  0.0108472

 Al 
  0.5199507  0.2426192  0.2687342

 Al 
  0.7555505  0.9971437  0.2323016

 Al 
  0.7410363  0.2261410  0.9838226

 Al 
  0.9984827  0.4991535  0.0110873

 Al 
  0.0095453  0.7519826  0.2617890

 Al 
  0.2450807  0.4996659  0.2527957

 Al 
  0.2452094  0.7426105  0.0013836

 Al 
  0.0006646  0.0096183  0.4941872

 Al 
  0.9872110  0.2593102  0.7363088

 Al 
  0.2491721  0.9932206  0.7475855

 Al 
  0.2371826  0.2704062  0.4900327

 Al 
  0.0033884  0.5005173  0.4932095

 Al 
  0.9826890  0.7453096  0.7594055

 Al 
  0.2529429  0.5061779  0.7710547

 Al 
  0.2445275  0.7597087  0.5124635

 Al 
  0.5198616  0.4967675  0.0021979

 Al 
  0.5063475  0.7541458  0.2561680

 Al 
  0.7552423  0.5024863  0.2556222

 Al 
  0.7568846  0.7496015  0.0038377

 Al 
  0.5103200  0.0042362  0.5081085

 Al 
  0.4924224  0.2521385  0.7469432

 Al 
  0.7351393  0.9955386  0.7629560

 Al 
  0.7452379  0.2405599  0.4928754

 Al 
  0.4860737  0.5096579  0.5040307

 Al 
  0.5150859  0.7477204  0.7649287

 Al 
  0.7534441  0.5031904  0.7074749

 Al 
  0.7534590  0.7826556  0.4899609

