32 
charge = 0 
 Al 
  0.0077608  0.9805814  0.9889832

 Al 
  0.0071680  0.2289453  0.2408594

 Al 
  0.2530048  0.0080627  0.2539045

 Al 
  0.2432503  0.2547708  0.9927157

 Al 
  0.4905500  0.9870254  0.0082372

 Al 
  0.5148619  0.2465101  0.2690807

 Al 
  0.7539874  0.9947082  0.2313697

 Al 
  0.7374264  0.2317212  0.9828511

 Al 
  0.0015655  0.4954953  0.0116257

 Al 
  0.0106888  0.7522858  0.2599723

 Al 
  0.2463554  0.4992513  0.2548104

 Al 
  0.2469110  0.7430585  0.9997946

 Al 
  0.0003366  0.0073078  0.4912170

 Al 
  0.9838449  0.2599277  0.7358584

 Al 
  0.2475942  0.9933543  0.7459556

 Al 
  0.2360601  0.2717625  0.4911836

 Al 
  0.0016992  0.4972192  0.4925796

 Al 
  0.9851728  0.7434397  0.7600453

 Al 
  0.2542436  0.5043203  0.7716561

 Al 
  0.2444508  0.7576110  0.5099116

 Al 
  0.5221053  0.4998515  0.0054168

 Al 
  0.5066618  0.7522400  0.2579625

 Al 
  0.7561470  0.5024900  0.2590862

 Al 
  0.7534466  0.7489332  0.0032622

 Al 
  0.5156539  0.0072113  0.5078622

 Al 
  0.4917566  0.2539850  0.7455683

 Al 
  0.7336011  0.9948951  0.7621566

 Al 
  0.7455460  0.2416947  0.4944928

 Al 
  0.4841456  0.5089402  0.5064502

 Al 
  0.5161143  0.7496015  0.7676625

 Al 
  0.7537387  0.5023340  0.7072818

 Al 
  0.7541520  0.7804663  0.4901874

