32 
charge = 0 
 Al 
  0.0065863  0.9826382  0.9900859

 Al 
  0.0079018  0.2287102  0.2395228

 Al 
  0.2517697  0.0074885  0.2543773

 Al 
  0.2425994  0.2527338  0.9932887

 Al 
  0.4905611  0.9867148  0.0098126

 Al 
  0.5179843  0.2441513  0.2689755

 Al 
  0.7549255  0.9961450  0.2318932

 Al 
  0.7395463  0.2282820  0.9833659

 Al 
  0.9997599  0.4977031  0.0113398

 Al 
  0.0100106  0.7520964  0.2610886

 Al 
  0.2455448  0.4994777  0.2536483

 Al 
  0.2458690  0.7427590  0.0007128

 Al 
  0.0005185  0.0087050  0.4929459

 Al 
  0.9858039  0.2595998  0.7360737

 Al 
  0.2485459  0.9932342  0.7469148

 Al 
  0.2366739  0.2710448  0.4904349

 Al 
  0.0027053  0.4991411  0.4929620

 Al 
  0.9836270  0.7445597  0.7597322

 Al 
  0.2534961  0.5054304  0.7713715

 Al 
  0.2444805  0.7588832  0.5114574

 Al 
  0.5207898  0.4980286  0.0034763

 Al 
  0.5065096  0.7534008  0.2568784

 Al 
  0.7556222  0.5024999  0.2570034

 Al 
  0.7555121  0.7493763  0.0035902

 Al 
  0.5125650  0.0054663  0.5080380

 Al 
  0.4921539  0.2528823  0.7463913

 Al 
  0.7344587  0.9952799  0.7626912

 Al 
  0.7453047  0.2409881  0.4935115

 Al 
  0.4852643  0.5093609  0.5050233

 Al 
  0.5155574  0.7484964  0.7660796

 Al 
  0.7536162  0.5028377  0.7072930

 Al 
  0.7537387  0.7818846  0.4900191

