32 
charge = 0 
 Al 
  0.0081456  0.9799577  0.9886417

 Al 
  0.0068833  0.2290728  0.2412801

 Al 
  0.2534318  0.0082236  0.2537610

 Al 
  0.2434768  0.2554032  0.9925437

 Al 
  0.4905388  0.9871578  0.0077150

 Al 
  0.5137939  0.2473046  0.2690498

 Al 
  0.7536780  0.9942540  0.2312175

 Al 
  0.7367618  0.2329093  0.9827261

 Al 
  0.0021274  0.4947626  0.0116962

 Al 
  0.0109066  0.7523501  0.2595874

 Al 
  0.2466512  0.4991919  0.2551606

 Al 
  0.2472687  0.7431761  0.9995174

 Al 
  0.0002871  0.0068400  0.4906836

 Al 
  0.9832434  0.2600032  0.7358262

 Al 
  0.2472798  0.9934199  0.7456487

 Al 
  0.2358980  0.2719333  0.4914695

 Al 
  0.0013749  0.4966276  0.4924496

 Al 
  0.9857161  0.7430709  0.7601022

 Al 
  0.2544676  0.5039602  0.7716982

 Al 
  0.2444532  0.7571853  0.5093943

 Al 
  0.5225150  0.5004319  0.0060603

 Al 
  0.5066866  0.7518489  0.2583251

 Al 
  0.7563066  0.5024776  0.2597718

 Al 
  0.7527734  0.7487600  0.0031657

 Al 
  0.5165945  0.0077546  0.5077818

 Al 
  0.4916279  0.2543451  0.7453010

 Al 
  0.7333659  0.9947738  0.7619487

 Al 
  0.7456599  0.2419447  0.4948171

 Al 
  0.4838040  0.5088090  0.5069056

 Al 
  0.5162554  0.7499455  0.7681414

 Al 
  0.7537399  0.5021769  0.7073499

 Al 
  0.7542882  0.7799304  0.4902629

