32 
charge = 0 
 Al 
  0.0085243  0.9793674  0.9883137

 Al 
  0.0065814  0.2292226  0.2416848

 Al 
  0.2538661  0.0083672  0.2536236

 Al 
  0.2437082  0.2560084  0.9923840

 Al 
  0.4905252  0.9873051  0.0071977

 Al 
  0.5127184  0.2480991  0.2689879

 Al 
  0.7533724  0.9938147  0.2310777

 Al 
  0.7361195  0.2341109  0.9826246

 Al 
  0.0026657  0.4940362  0.0117556

 Al 
  0.0111195  0.7524145  0.2591976

 Al 
  0.2469568  0.4991411  0.2554898

 Al 
  0.2476301  0.7432998  0.9992537

 Al 
  0.0002413  0.0063734  0.4901738

 Al 
  0.9826704  0.2600626  0.7358138

 Al 
  0.2469692  0.9934966  0.7453492

 Al 
  0.2357557  0.2720682  0.4917739

 Al 
  0.0010581  0.4960633  0.4923197

 Al 
  0.9862692  0.7427046  0.7601344

 Al 
  0.2546792  0.5036075  0.7717143

 Al 
  0.2444607  0.7567596  0.5088795

 Al 
  0.5229085  0.5009962  0.0066977

 Al 
  0.5067002  0.7514603  0.2586865

 Al 
  0.7564576  0.5024615  0.2604512

 Al 
  0.7521138  0.7485756  0.0030766

 Al 
  0.5174830  0.0082756  0.5076927

 Al 
  0.4915004  0.2546990  0.7450374

 Al 
  0.7331605  0.9946574  0.7617296

 Al 
  0.7457886  0.2422009  0.4951364

 Al 
  0.4834810  0.5086827  0.5073486

 Al 
  0.5163717  0.7502747  0.7685907

 Al 
  0.7537201  0.5020284  0.7074538

 Al 
  0.7544218  0.7793661  0.4903495

