32 
charge = 0 
 Al 
  0.0088944  0.9788142  0.9880018

 Al 
  0.0062608  0.2293946  0.2420722

 Al 
  0.2543042  0.0084946  0.2534949

 Al 
  0.2439434  0.2565838  0.9922355

 Al 
  0.4905091  0.9874672  0.0066866

 Al 
  0.5116393  0.2488924  0.2688976

 Al 
  0.7530692  0.9933939  0.2309490

 Al 
  0.7355032  0.2353213  0.9825454

 Al 
  0.0031805  0.4933184  0.0118026

 Al 
  0.0113274  0.7524776  0.2588028

 Al 
  0.2472724  0.4991003  0.2557992

 Al 
  0.2479951  0.7434298  0.9990062

 Al 
  0.0002030  0.0059081  0.4896886

 Al 
  0.9821284  0.2601022  0.7358225

 Al 
  0.2466635  0.9935845  0.7450535

 Al 
  0.2356356  0.2721672  0.4920945

 Al 
  0.0007500  0.4955274  0.4921885

 Al 
  0.9868323  0.7423407  0.7601431

 Al 
  0.2548772  0.5032659  0.7717044

 Al 
  0.2444730  0.7563376  0.5083684

 Al 
  0.5232823  0.5015432  0.0073288

 Al 
  0.5067002  0.7510730  0.2590466

 Al 
  0.7566012  0.5024405  0.2611195

 Al 
  0.7514702  0.7483813  0.0029949

 Al 
  0.5183209  0.0087718  0.5075912

 Al 
  0.4913754  0.2550480  0.7447800

 Al 
  0.7329848  0.9945461  0.7615019

 Al 
  0.7459309  0.2424632  0.4954482

 Al 
  0.4831778  0.5085627  0.5077806

 Al 
  0.5164621  0.7505891  0.7690114

 Al 
  0.7536793  0.5018873  0.7075949

 Al 
  0.7545530  0.7787733  0.4904435

