32 
charge = 0 
 Al 
  0.0073709  0.9812386  0.9893396

 Al 
  0.0074340  0.2288414  0.2404250

 Al 
  0.2525840  0.0078870  0.2540555

 Al 
  0.2430276  0.2541137  0.9928976

 Al 
  0.4905574  0.9869066  0.0087632

 Al 
  0.5159200  0.2457193  0.2690783

 Al 
  0.7542981  0.9951760  0.2315319

 Al 
  0.7381144  0.2305505  0.9829984

 Al 
  0.0009826  0.4962316  0.0115427

 Al 
  0.0104661  0.7522214  0.2603510

 Al 
  0.2460720  0.4993181  0.2544404

 Al 
  0.2465583  0.7429496  0.0000879

 Al 
  0.0003923  0.0077756  0.4917727

 Al 
  0.9844735  0.2598337  0.7359104

 Al 
  0.2479098  0.9933011  0.7462687

 Al 
  0.2362445  0.2715571  0.4909151

 Al 
  0.0020308  0.4978367  0.4927083

 Al 
  0.9846418  0.7438122  0.7599649

 Al 
  0.2540060  0.5046866  0.7715880

 Al 
  0.2444545  0.7580380  0.5104289

 Al 
  0.5216796  0.4992562  0.0047696

 Al 
  0.5066234  0.7526298  0.2575999

 Al 
  0.7559787  0.5024974  0.2583944

 Al 
  0.7541297  0.7490941  0.0033649

 Al 
  0.5146676  0.0066469  0.5079303

 Al 
  0.4918878  0.2536199  0.7458406

 Al 
  0.7338622  0.9950213  0.7623509

 Al 
  0.7454470  0.2414509  0.4941661

 Al 
  0.4845032  0.5090763  0.5059836

 Al 
  0.5159509  0.7492438  0.7671576

 Al 
  0.7537176  0.5024962  0.7072496

 Al 
  0.7540159  0.7809712  0.4901205

