32 
charge = 0 
 Al 
  0.0108769  0.9762710  0.9864982

 Al 
  0.0040518  0.2308227  0.2440151

 Al 
  0.2569799  0.0089327  0.2528674

 Al 
  0.2454260  0.2593894  0.9916341

 Al 
  0.4903557  0.9887431  0.0038006

 Al 
  0.5052139  0.2535951  0.2677949

 Al 
  0.7513452  0.9912455  0.2303673

 Al 
  0.7323536  0.2426427  0.9825256

 Al 
  0.0057151  0.4892481  0.0118732

 Al 
  0.0124375  0.7528093  0.2563623

 Al 
  0.2493144  0.4990359  0.2572076

 Al 
  0.2502401  0.7442862  0.9978491

 Al 
  0.0000767  0.0031694  0.4873175

 Al 
  0.9795344  0.2599364  0.7363175

 Al 
  0.2449644  0.9943394  0.7433642

 Al 
  0.2353299  0.2720063  0.4943493

 Al 
  0.9991164  0.4929570  0.4913928

 Al 
  0.9903483  0.7402022  0.7597161

 Al 
  0.2557943  0.5014616  0.7711376

 Al 
  0.2446574  0.7539033  0.5054279

 Al 
  0.5250842  0.5044280  0.0109252

 Al 
  0.5064477  0.7488689  0.2611554

 Al 
  0.7572645  0.5022313  0.2648866

 Al 
  0.7480694  0.7470459  0.0026521

 Al 
  0.5222217  0.0112037  0.5067472

 Al 
  0.4906787  0.2569922  0.7433778

 Al 
  0.7325912  0.9940510  0.7600168

 Al 
  0.7470026  0.2441476  0.4970843

 Al 
  0.4817905  0.5079674  0.5101208

 Al 
  0.5164447  0.7520952  0.7708492

 Al 
  0.7529838  0.5012574  0.7091864

 Al 
  0.7552893  0.7747116  0.4911811

