32 
charge = 0 
 Al 
  0.0125761  0.9749356  0.9855391

 Al 
  0.0009418  0.2332026  0.2454804

 Al 
  0.2601282  0.0088213  0.2524293

 Al 
  0.2473974  0.2612457  0.9915957

 Al 
  0.4901267  0.9909856  0.0008304

 Al 
  0.4979234  0.2590528  0.2654844

 Al 
  0.7494852  0.9895649  0.2300010

 Al 
  0.7297832  0.2511881  0.9833795

 Al 
  0.0074996  0.4850898  0.0115638

 Al 
  0.0134387  0.7529850  0.2532647

 Al 
  0.2519207  0.4993305  0.2579241

 Al 
  0.2530469  0.7453282  0.9971586

 Al 
  0.0001275  0.0000272  0.4856158

 Al 
  0.9778934  0.2588201  0.7378843

 Al 
  0.2433048  0.9956698  0.7413680

 Al 
  0.2357594  0.2702218  0.4976598

 Al 
  0.9977204  0.4912937  0.4904819

 Al 
  0.9947094  0.7376677  0.7582632

 Al 
  0.2563066  0.4999851  0.7694780

 Al 
  0.2450795  0.7512982  0.5022994

 Al 
  0.5260556  0.5070133  0.0147084

 Al 
  0.5056544  0.7466078  0.2635439

 Al 
  0.7575949  0.5018266  0.2687218

 Al 
  0.7453072  0.7452428  0.0025580

 Al 
  0.5244963  0.0128533  0.5051742

 Al 
  0.4899918  0.2589513  0.7420895

 Al 
  0.7336382  0.9939372  0.7582149

 Al 
  0.7485409  0.2463418  0.4983355

 Al 
  0.4811618  0.5075491  0.5123967

 Al 
  0.5151379  0.7530085  0.7714420

 Al 
  0.7512190  0.5010321  0.7127110

 Al 
  0.7560294  0.7689223  0.4924014

