32 
charge = 0 
 Al 
  0.0105787  0.9766026  0.9867049

 Al 
  0.0044515  0.2305418  0.2437379

 Al 
  0.2565319  0.0088968  0.2529553

 Al 
  0.2451698  0.2590008  0.9916997

 Al 
  0.4903866  0.9884931  0.0042585

 Al 
  0.5062732  0.2528179  0.2680387

 Al 
  0.7516212  0.9915573  0.2304440

 Al 
  0.7328140  0.2414225  0.9824774

 Al 
  0.0053599  0.4898941  0.0118843

 Al 
  0.0122692  0.7527622  0.2567794

 Al 
  0.2489592  0.4990260  0.2570256

 Al 
  0.2498589  0.7441377  0.9980038

 Al 
  0.0000854  0.0036199  0.4876504

 Al 
  0.9798884  0.2600144  0.7361814

 Al 
  0.2452304  0.9941884  0.7436402

 Al 
  0.2353336  0.2721214  0.4939359

 Al 
  0.9993614  0.4933097  0.4915252

 Al 
  0.9897493  0.7405562  0.7598411

 Al 
  0.2556730  0.5017289  0.7712898

 Al 
  0.2446141  0.7542956  0.5059007

 Al 
  0.5248416  0.5039936  0.0103497

 Al 
  0.5065182  0.7492203  0.2608101

 Al 
  0.7571766  0.5022759  0.2642914

 Al 
  0.7485743  0.7472848  0.0026917

 Al 
  0.5217031  0.0108646  0.5069180

 Al 
  0.4907888  0.2566866  0.7435931

 Al 
  0.7325751  0.9941104  0.7602718

 Al 
  0.7468034  0.2438543  0.4968455

 Al 
  0.4819687  0.5080516  0.5097594

 Al 
  0.5165165  0.7518910  0.7706265

 Al 
  0.7531521  0.5013353  0.7088325

 Al 
  0.7551730  0.7754455  0.4910388

