32 
charge = 0 
 Al 
  0.0116888  0.9754938  0.9859858

 Al 
  0.0027858  0.2317559  0.2447404

 Al 
  0.2583263  0.0089600  0.2526434

 Al 
  0.2462267  0.2603671  0.9915276

 Al 
  0.4902579  0.9895933  0.0024826

 Al 
  0.5020680  0.2559230  0.2669286

 Al 
  0.7505346  0.9904213  0.2301767

 Al 
  0.7311197  0.2462985  0.9827818

 Al 
  0.0066284  0.4873892  0.0117865

 Al 
  0.0129041  0.7529206  0.2550802

 Al 
  0.2504072  0.4991164  0.2576308

 Al 
  0.2514083  0.7447342  0.9974729

 Al 
  0.0000767  0.0018254  0.4864598

 Al 
  0.9786558  0.2595837  0.7368534

 Al 
  0.2442107  0.9948505  0.7425301

 Al 
  0.2354203  0.2714507  0.4956772

 Al 
  0.9984493  0.4920784  0.4909955

 Al 
  0.9921761  0.7391367  0.7592149

 Al 
  0.2560839  0.5007425  0.7705510

 Al 
  0.2448121  0.7527598  0.5040518

 Al 
  0.5256633  0.5056272  0.0125934

 Al 
  0.5061692  0.7478590  0.2621826

 Al 
  0.7574662  0.5020779  0.2666007

 Al 
  0.7467180  0.7462972  0.0025741

 Al 
  0.5234790  0.0120613  0.5061593

 Al 
  0.4903668  0.2578709  0.7427788

 Al 
  0.7328362  0.9939359  0.7592458

 Al 
  0.7476350  0.2450547  0.4977142

 Al 
  0.4813883  0.5077533  0.5111467

 Al 
  0.5160598  0.7525952  0.7713108

 Al 
  0.7523514  0.5010915  0.7104685

 Al 
  0.7556222  0.7723739  0.4916551

