32 
charge = 0 
 Al 
  0.0133781  0.9749604  0.9853423

 Al 
  0.9983776  0.2353237  0.2460918

 Al 
  0.2624078  0.0083870  0.2522920

 Al 
  0.2490966  0.2616851  0.9920276

 Al 
  0.4899955  0.9932132  0.9988751

 Al 
  0.4927652  0.2630897  0.2632308

 Al 
  0.7481870  0.9888644  0.2298896

 Al 
  0.7285568  0.2573969  0.9845428

 Al 
  0.0080615  0.4824910  0.0111257

 Al 
  0.0139733  0.7528909  0.2507463

 Al 
  0.2538773  0.4997673  0.2578697

 Al 
  0.2552733  0.7460423  0.9970509

 Al 
  0.0002500  0.9977142  0.4849859

 Al 
  0.9775729  0.2573796  0.7397060

 Al 
  0.2423271  0.9969247  0.7397579

 Al 
  0.2364994  0.2678865  0.5004925

 Al 
  0.9970942  0.4908903  0.4899027

 Al 
  0.9980855  0.7356851  0.7566210

 Al 
  0.2563165  0.4993627  0.7676823

 Al 
  0.2455188  0.7495396  0.5002116

 Al 
  0.5258329  0.5084761  0.0172157

 Al 
  0.5047906  0.7451970  0.2652616

 Al 
  0.7575009  0.5014356  0.2711252

 Al 
  0.7442070  0.7438642  0.0026620

 Al 
  0.5247822  0.0133087  0.5035691

 Al 
  0.4895995  0.2601629  0.7414175

 Al 
  0.7354302  0.9941971  0.7569291

 Al 
  0.7497339  0.2480805  0.4987550

 Al 
  0.4813945  0.5074105  0.5137988

 Al 
  0.5132902  0.7531434  0.7708071

 Al 
  0.7493429  0.5012079  0.7164645

 Al 
  0.7564824  0.7640191  0.4935486

