32 
charge = 0 
 Al 
  0.0136924  0.9753453  0.9854079

 Al 
  0.9967081  0.2367469  0.2463145

 Al 
  0.2637827  0.0079934  0.2522821

 Al 
  0.2502723  0.2616059  0.9924719

 Al 
  0.4899559  0.9948381  0.9977377

 Al 
  0.4896886  0.2655821  0.2616603

 Al 
  0.7474061  0.9886392  0.2298834

 Al 
  0.7280469  0.2611715  0.9854661

 Al 
  0.0081221  0.4810999  0.0107792

 Al 
  0.0142184  0.7527189  0.2490718

 Al 
  0.2550480  0.5001200  0.2576172

 Al 
  0.2567163  0.7464420  0.9971338

 Al 
  0.0003379  0.9962786  0.4848139

 Al 
  0.9777103  0.2562571  0.7410896

 Al 
  0.2418333  0.9977996  0.7386813

 Al 
  0.2370947  0.2660623  0.5023675

 Al 
  0.9968950  0.4909361  0.4896292

 Al 
  0.0002351  0.7343956  0.7554032

 Al 
  0.2561717  0.4991671  0.7663767

 Al 
  0.2458406  0.7485174  0.4990161

 Al 
  0.5252475  0.5092409  0.0186439

 Al 
  0.5041656  0.7444433  0.2663012

 Al 
  0.7572868  0.5011621  0.2724110

 Al 
  0.7439236  0.7430251  0.0027771

 Al 
  0.5244480  0.0133075  0.5023934

 Al 
  0.4894164  0.2608002  0.7411292

 Al 
  0.7369313  0.9944867  0.7561581

 Al 
  0.7504579  0.2491869  0.4988181

 Al 
  0.4818252  0.5073808  0.5145513

 Al 
  0.5118026  0.7530419  0.7699842

 Al 
  0.7479951  0.5014380  0.7192577

 Al 
  0.7567187  0.7607668  0.4943679

