32 
charge = 0 
 Al 
  0.0136020  0.9751881  0.9853720

 Al 
  0.9972749  0.2362618  0.2462514

 Al 
  0.2633248  0.0081357  0.2522784

 Al 
  0.2498676  0.2616603  0.9923085

 Al 
  0.4899646  0.9942726  0.9981152

 Al 
  0.4907109  0.2647480  0.2621999

 Al 
  0.7476660  0.9886986  0.2298797

 Al 
  0.7281979  0.2599116  0.9851393

 Al 
  0.0081246  0.4815479  0.0109017

 Al 
  0.0141429  0.7527870  0.2496436

 Al 
  0.2546607  0.4999950  0.2577199

 Al 
  0.2562274  0.7463121  0.9970942

 Al 
  0.0003082  0.9967613  0.4848547

 Al 
  0.9776372  0.2566519  0.7406057

 Al 
  0.2419893  0.9974989  0.7390500

 Al 
  0.2368843  0.2667046  0.5017301

 Al 
  0.9969445  0.4908977  0.4897109

 Al 
  0.9995087  0.7348337  0.7558277

 Al 
  0.2562336  0.4992179  0.7668296

 Al 
  0.2457292  0.7488553  0.4994084

 Al 
  0.5254839  0.5089946  0.0181761

 Al 
  0.5043810  0.7446859  0.2659559

 Al 
  0.7573722  0.5012561  0.2719977

 Al 
  0.7439854  0.7433035  0.0027350

 Al 
  0.5246003  0.0133310  0.5028031

 Al 
  0.4894721  0.2605960  0.7412145

 Al 
  0.7363967  0.9943790  0.7564143

 Al 
  0.7502166  0.2488144  0.4988119

 Al 
  0.4816568  0.5073870  0.5143087

 Al 
  0.5123298  0.7530902  0.7702948

 Al 
  0.7484605  0.5013514  0.7182813

 Al 
  0.7566432  0.7618744  0.4940845

