32 
charge = 0 
 Al 
  0.0129375  0.9748515  0.9854141

 Al 
  0.9999505  0.2340107  0.2457638

 Al 
  0.2610366  0.0086815  0.2523563

 Al 
  0.2480409  0.2615081  0.9917219

 Al 
  0.4900673  0.9918073  0.0000371

 Al 
  0.4958591  0.2606480  0.2646416

 Al 
  0.7489654  0.9892369  0.2299428

 Al 
  0.7292362  0.2536558  0.9837892

 Al 
  0.0077942  0.4840119  0.0114103

 Al 
  0.0136701  0.7529739  0.2522957

 Al 
  0.2526979  0.4994815  0.2579575

 Al 
  0.2539107  0.7456190  0.9970781

 Al 
  0.0001695  0.9991139  0.4853101

 Al 
  0.9776818  0.2583102  0.7385402

 Al 
  0.2428927  0.9961400  0.7407492

 Al 
  0.2360155  0.2693951  0.4987463

 Al 
  0.9974308  0.4910574  0.4902369

 Al 
  0.9960287  0.7368992  0.7576667

 Al 
  0.2563475  0.4996918  0.7688196

 Al 
  0.2452416  0.7505866  0.5014517

 Al 
  0.5260705  0.5076308  0.0157282

 Al 
  0.5053376  0.7460225  0.2642283

 Al 
  0.7575937  0.5016806  0.2697181

 Al 
  0.7447762  0.7446970  0.0025840

 Al 
  0.5247389  0.0131045  0.5045852

 Al 
  0.4898235  0.2594550  0.7417950

 Al 
  0.7342483  0.9940065  0.7577001

 Al 
  0.7490124  0.2470199  0.4985508

 Al 
  0.4811841  0.5074798  0.5129783

 Al 
  0.5144943  0.7531112  0.7712972

 Al 
  0.7505284  0.5010693  0.7140797

 Al 
  0.7562188  0.7670425  0.4928296

