32 
charge = 0 
 Al 
  0.0139152  0.9762549  0.9856925

 Al 
  0.9943815  0.2387629  0.2464680

 Al 
  0.2655846  0.0073214  0.2523613

 Al 
  0.2520185  0.2611257  0.9932590

 Al 
  0.4899720  0.9973219  0.9962576

 Al 
  0.4857074  0.2689062  0.2593857

 Al 
  0.7463814  0.9885736  0.2299589

 Al 
  0.7276496  0.2661527  0.9869549

 Al 
  0.0078895  0.4795060  0.0102198

 Al 
  0.0144411  0.7523390  0.2466672

 Al 
  0.2565232  0.5006955  0.2570380

 Al 
  0.2587322  0.7469197  0.9974110

 Al 
  0.0004443  0.9943320  0.4848077

 Al 
  0.9782647  0.2544998  0.7432355

 Al 
  0.2413086  0.9990731  0.7371294

 Al 
  0.2380390  0.2632048  0.5049960

 Al 
  0.9968752  0.4913074  0.4894176

 Al 
  0.0032028  0.7325801  0.7535543

 Al 
  0.2557930  0.4991164  0.7644188

 Al 
  0.2463381  0.7472167  0.4975249

 Al 
  0.5238652  0.5101567  0.0204124

 Al 
  0.5032387  0.7435845  0.2676650

 Al 
  0.7567942  0.5007599  0.2738701

 Al 
  0.7440201  0.7419274  0.0029640

 Al 
  0.5234456  0.0130006  0.5006052

 Al 
  0.4892542  0.2615044  0.7409002

 Al 
  0.7393867  0.9950101  0.7551334

 Al 
  0.7513861  0.2506906  0.4987043

 Al 
  0.4827372  0.5073833  0.5154114

 Al 
  0.5094129  0.7527375  0.7683815

 Al 
  0.7460200  0.5018687  0.7235830

 Al 
  0.7569811  0.7561668  0.4956116

