32 
charge = 0 
 Al 
  0.0139164  0.9775333  0.9861641

 Al 
  0.9920487  0.2408012  0.2464816

 Al 
  0.2672689  0.0065121  0.2525457

 Al 
  0.2538971  0.2602903  0.9942144

 Al 
  0.4900822  0.0000656  0.9948406

 Al 
  0.4820615  0.2720447  0.2570553

 Al 
  0.7454173  0.9887728  0.2301445

 Al 
  0.7275915  0.2708467  0.9886862

 Al 
  0.0073264  0.4783043  0.0095614

 Al 
  0.0145290  0.7517858  0.2441488

 Al 
  0.2577669  0.5013824  0.2562274

 Al 
  0.2607569  0.7473083  0.9978590

 Al 
  0.0005025  0.9924162  0.4850255

 Al 
  0.9791904  0.2525605  0.7456091

 Al 
  0.2409757  0.0003886  0.7355081

 Al 
  0.2391008  0.2600292  0.5076135

 Al 
  0.9971722  0.4919719  0.4894535

 Al 
  0.0061606  0.7307361  0.7515581

 Al 
  0.2552114  0.4992810  0.7623199

 Al 
  0.2468987  0.7460361  0.4962242

 Al 
  0.5217861  0.5109772  0.0219308

 Al 
  0.5022672  0.7429447  0.2689322

 Al 
  0.7560653  0.5003329  0.2749307

 Al 
  0.7446537  0.7409101  0.0031545

 Al 
  0.5218962  0.0123917  0.4986610

 Al 
  0.4892122  0.2619883  0.7408656

 Al 
  0.7422170  0.9956413  0.7541285

 Al 
  0.7522029  0.2521397  0.4984159

 Al 
  0.4839884  0.5074019  0.5160450

 Al 
  0.5066828  0.7523105  0.7662764

 Al 
  0.7439879  0.5023922  0.7284268

 Al 
  0.7571692  0.7515024  0.4969940

