32 
charge = 0 
 Al 
  0.0137914  0.9786570  0.9866083

 Al 
  0.9903891  0.2422590  0.2464185

 Al 
  0.2683889  0.0058413  0.2527412

 Al 
  0.2553104  0.2595057  0.9949842

 Al 
  0.4902369  0.0021880  0.9938369

 Al 
  0.4796978  0.2741325  0.2553970

 Al 
  0.7447688  0.9890847  0.2303624

 Al 
  0.7277672  0.2740075  0.9900933

 Al 
  0.0067311  0.4777140  0.0090206

 Al 
  0.0145042  0.7512735  0.2422702

 Al 
  0.2584550  0.5019628  0.2555171

 Al 
  0.2621962  0.7475286  0.9982872

 Al 
  0.0004975  0.9910598  0.4853027

 Al 
  0.9800715  0.2510866  0.7474333

 Al 
  0.2408730  0.0013316  0.7343114

 Al 
  0.2399312  0.2575900  0.5094426

 Al 
  0.9976090  0.4926056  0.4896725

 Al 
  0.0082657  0.7294045  0.7500619

 Al 
  0.2546668  0.4995112  0.7607420

 Al 
  0.2473454  0.7452638  0.4954173

 Al 
  0.5198171  0.5115452  0.0228367

 Al 
  0.5015593  0.7426328  0.2697626

 Al 
  0.7553809  0.5000136  0.2754010

 Al 
  0.7454445  0.7402319  0.0032734

 Al 
  0.5204680  0.0117915  0.4971957

 Al 
  0.4892740  0.2621789  0.7409695

 Al 
  0.7444495  0.9961425  0.7533996

 Al 
  0.7526917  0.2531261  0.4981338

 Al 
  0.4850898  0.5074006  0.5163358

 Al 
  0.5045320  0.7519702  0.7644597

 Al 
  0.7425375  0.5028080  0.7322261

 Al 
  0.7572558  0.7481523  0.4980830

