32 
charge = 0 
 Al 
  0.0139362  0.9765445  0.9857940

 Al 
  0.9937924  0.2392753  0.2464828

 Al 
  0.2660202  0.0071308  0.2523984

 Al 
  0.2524801  0.2609462  0.9934855

 Al 
  0.4899894  0.9979902  0.9958962

 Al 
  0.4847545  0.2697181  0.2588003

 Al 
  0.7461326  0.9885983  0.2299936

 Al 
  0.7276026  0.2673642  0.9873682

 Al 
  0.0077768  0.4791644  0.0100639

 Al 
  0.0144758  0.7522165  0.2460435

 Al 
  0.2568623  0.5008576  0.2568549

 Al 
  0.2592434  0.7470261  0.9975075

 Al 
  0.0004641  0.9938456  0.4848423

 Al 
  0.9784639  0.2540270  0.7438134

 Al 
  0.2412059  0.9994023  0.7367271

 Al 
  0.2382951  0.2624313  0.5056594

 Al 
  0.9969185  0.4914497  0.4894003

 Al 
  0.0039503  0.7321172  0.7530630

 Al 
  0.2556656  0.4991387  0.7639028

 Al 
  0.2464729  0.7469073  0.4971784

 Al 
  0.5234097  0.5103708  0.0208195

 Al 
  0.5029974  0.7434026  0.2679942

 Al 
  0.7566333  0.5006547  0.2741770

 Al 
  0.7441290  0.7416638  0.0030135

 Al 
  0.5231041  0.0128744  0.5001275

 Al 
  0.4892320  0.2616492  0.7408730

 Al 
  0.7400673  0.9951611  0.7548797

 Al 
  0.7516039  0.2510618  0.4986461

 Al 
  0.4830206  0.5073882  0.5155933

 Al 
  0.5087545  0.7526385  0.7678976

 Al 
  0.7455101  0.5019925  0.7247550

 Al 
  0.7570355  0.7549948  0.4959457

