32 
charge = 0 
 Al 
  0.0139362  0.9771855  0.9860304

 Al 
  0.9926241  0.2402975  0.2464890

 Al 
  0.2668643  0.0067249  0.2524900

 Al 
  0.2534219  0.2605267  0.9939644

 Al 
  0.4900450  0.9993639  0.9951871

 Al 
  0.4829266  0.2712910  0.2576320

 Al 
  0.7456500  0.9886986  0.2300876

 Al 
  0.7275729  0.2697156  0.9882345

 Al 
  0.0074947  0.4785617  0.0097347

 Al 
  0.0145203  0.7519393  0.2447824

 Al 
  0.2574860  0.5012017  0.2564477

 Al 
  0.2602569  0.7472204  0.9977328

 Al 
  0.0004938  0.9928865  0.4849525

 Al 
  0.9789280  0.2530543  0.7450027

 Al 
  0.2410388  0.0000619  0.7359141

 Al 
  0.2388273  0.2608398  0.5069712

 Al 
  0.9970670  0.4917826  0.4894176

 Al 
  0.0054317  0.7311928  0.7520618

 Al 
  0.2553735  0.4992216  0.7628496

 Al 
  0.2467539  0.7463158  0.4965274

 Al 
  0.5223677  0.5107804  0.0215806

 Al 
  0.5025098  0.7430820  0.2686303

 Al 
  0.7562683  0.5004406  0.2747092

 Al 
  0.7444471  0.7411539  0.0031088

 Al 
  0.5223269  0.0125674  0.4991535

 Al 
  0.4892097  0.2618917  0.7408557

 Al 
  0.7414856  0.9954779  0.7543773

 Al 
  0.7520148  0.2517883  0.4985001

 Al 
  0.4836481  0.5073981  0.5159113

 Al 
  0.5073870  0.7524231  0.7668420

 Al 
  0.7444904  0.5022561  0.7271818

 Al 
  0.7571296  0.7526570  0.4966388

