32 
charge = 0 
 Al 
  0.0137308  0.9790518  0.9867680

 Al 
  0.9898656  0.2427207  0.2463863

 Al 
  0.2687280  0.0056099  0.2528155

 Al 
  0.2557708  0.2592260  0.9952440

 Al 
  0.4903037  0.0028922  0.9935164

 Al 
  0.4789973  0.2747612  0.2548772

 Al 
  0.7445696  0.9892171  0.2304490

 Al 
  0.7278637  0.2749728  0.9905772

 Al 
  0.0065071  0.4775791  0.0088350

 Al 
  0.0144795  0.7510866  0.2416576

 Al 
  0.2586283  0.5021670  0.2552683

 Al 
  0.2626504  0.7475880  0.9984444

 Al 
  0.0004851  0.9906292  0.4854116

 Al 
  0.9803933  0.2506052  0.7480360

 Al 
  0.2408680  0.0016286  0.7339253

 Al 
  0.2402096  0.2567856  0.5100119

 Al 
  0.9977922  0.4928345  0.4897814

 Al 
  0.0089327  0.7289812  0.7495755

 Al 
  0.2544713  0.4996027  0.7602260

 Al 
  0.2474964  0.7450312  0.4951859

 Al 
  0.5190956  0.5117284  0.0230867

 Al 
  0.5013341  0.7425610  0.2700101

 Al 
  0.7551322  0.4999097  0.2754913

 Al 
  0.7457589  0.7400252  0.0033068

 Al 
  0.5199557  0.0115724  0.4967205

 Al 
  0.4893136  0.2622073  0.7410264

 Al 
  0.7451945  0.9963096  0.7531620

 Al 
  0.7528266  0.2534280  0.4980348

 Al 
  0.4854797  0.5073932  0.5163952

 Al 
  0.5038117  0.7518601  0.7638236

 Al 
  0.7420808  0.5029466  0.7335008

 Al 
  0.7572756  0.7470880  0.4984493

