32 
charge = 0 
 Al 
  0.0138805  0.9759876  0.9856022

 Al 
  0.9949693  0.2382506  0.2464432

 Al 
  0.2651416  0.0075046  0.2523316

 Al 
  0.2515655  0.2612841  0.9930437

 Al 
  0.4899597  0.9966710  0.9966239

 Al 
  0.4866801  0.2680833  0.2599673

 Al 
  0.7466338  0.9885649  0.2299304

 Al 
  0.7277177  0.2649225  0.9865564

 Al 
  0.0079798  0.4798710  0.0103695

 Al 
  0.0143966  0.7524504  0.2472836

 Al 
  0.2561705  0.5005408  0.2572076

 Al 
  0.2582224  0.7468083  0.9973244

 Al 
  0.0004208  0.9948183  0.4847866

 Al 
  0.9780890  0.2549626  0.7426712

 Al 
  0.2414225  0.9987463  0.7375278

 Al 
  0.2377890  0.2639572  0.5043327

 Al 
  0.9968516  0.4911836  0.4894498

 Al 
  0.0024553  0.7330404  0.7540357

 Al 
  0.2559081  0.4991077  0.7649275

 Al 
  0.2462069  0.7475335  0.4978838

 Al 
  0.5242773  0.5099376  0.0199891

 Al 
  0.5034776  0.7437812  0.2673296

 Al 
  0.7569403  0.5008638  0.2735384

 Al 
  0.7439446  0.7421972  0.0029157

 Al 
  0.5237525  0.0131083  0.5010717

 Al 
  0.4892852  0.2613472  0.7409386

 Al 
  0.7387295  0.9948666  0.7553883

 Al 
  0.7511608  0.2503156  0.4987525

 Al 
  0.4824749  0.5073796  0.5152146

 Al 
  0.5100490  0.7528278  0.7688332

 Al 
  0.7465262  0.5017499  0.7224444

 Al 
  0.7569229  0.7573350  0.4952849

