32 
charge = 0 
 Al 
  0.0138446  0.9782721  0.9864524

 Al 
  0.9909287  0.2417838  0.2464457

 Al 
  0.2680325  0.0060690  0.2526707

 Al 
  0.2548438  0.2597780  0.9947255

 Al 
  0.4901787  0.0014801  0.9941649

 Al 
  0.4804428  0.2734691  0.2559353

 Al 
  0.7449767  0.9889659  0.2302819

 Al 
  0.7276880  0.2729951  0.9896169

 Al 
  0.0069427  0.4778786  0.0092038

 Al 
  0.0145216  0.7514529  0.2428914

 Al 
  0.2582533  0.5017635  0.2557609

 Al 
  0.2617284  0.7474618  0.9981362

 Al 
  0.0005037  0.9915017  0.4852012

 Al 
  0.9797634  0.2515754  0.7468269

 Al 
  0.2408928  0.0010247  0.7347050

 Al 
  0.2396540  0.2584006  0.5088523

 Al 
  0.9974432  0.4923840  0.4895810

 Al 
  0.0075788  0.7298401  0.7505557

 Al 
  0.2548562  0.4994270  0.7612643

 Al 
  0.2471944  0.7455089  0.4956685

 Al 
  0.5205076  0.5113596  0.0225595

 Al 
  0.5017908  0.7427194  0.2695003

 Al 
  0.7556210  0.5001188  0.2752772

 Al 
  0.7451537  0.7404485  0.0032362

 Al 
  0.5209631  0.0120019  0.4976796

 Al 
  0.4892443  0.2621318  0.7409225

 Al 
  0.7437020  0.9959754  0.7536397

 Al 
  0.7525432  0.2528105  0.4982315

 Al 
  0.4847112  0.5074043  0.5162579

 Al 
  0.5052522  0.7520828  0.7650822

 Al 
  0.7430090  0.5026694  0.7309539

 Al 
  0.7572323  0.7492451  0.4977167

