32 
charge = 0 
 Al 
  0.0133149  0.9811061  0.9876368

 Al 
  0.9875303  0.2447998  0.2461648

 Al 
  0.2701252  0.0044280  0.2532276

 Al 
  0.2578907  0.2577731  0.9965026

 Al 
  0.4907616  0.0063029  0.9920152

 Al 
  0.4762289  0.2772969  0.2526162

 Al 
  0.7437169  0.9900611  0.2309923

 Al 
  0.7285926  0.2790741  0.9930548

 Al 
  0.0052782  0.4773811  0.0078845

 Al 
  0.0142344  0.7500520  0.2387567

 Al 
  0.2590057  0.5032659  0.2539837

 Al 
  0.2646725  0.7477959  0.9993193

 Al 
  0.0003391  0.9886751  0.4860242

 Al 
  0.9821407  0.2483380  0.7509158

 Al 
  0.2410561  0.0029318  0.7321519

 Al 
  0.2415660  0.2529466  0.5124623

 Al 
  0.9989580  0.4940436  0.4905883

 Al 
  0.0119425  0.7270630  0.7473157

 Al 
  0.2534342  0.5001077  0.7577929

 Al 
  0.2482538  0.7440659  0.4943010

 Al 
  0.5151106  0.5126169  0.0239208

 Al 
  0.5003255  0.7424447  0.2709829

 Al 
  0.7537622  0.4994320  0.2754331

 Al 
  0.7476177  0.7391503  0.0034107

 Al 
  0.5172306  0.0104129  0.4945089

 Al 
  0.4896565  0.2621021  0.7414769

 Al 
  0.7488070  0.9971041  0.7520209

 Al 
  0.7532573  0.2547003  0.4975558

 Al 
  0.4875192  0.5072793  0.5164175

 Al 
  0.5002933  0.7513811  0.7605131

 Al 
  0.7400611  0.5036063  0.7397728

 Al 
  0.7573140  0.7422603  0.5002809

