32 
charge = 0 
 Al 
  0.0136602  0.9794540  0.9869338

 Al 
  0.9893594  0.2431687  0.2463492

 Al 
  0.2690473  0.0053760  0.2528934

 Al 
  0.2562212  0.2589402  0.9955015

 Al 
  0.4903792  0.0035914  0.9932033

 Al 
  0.4783451  0.2753502  0.2543785

 Al 
  0.7443802  0.9893619  0.2305443

 Al 
  0.7279788  0.2758923  0.9910648

 Al 
  0.0062744  0.4774776  0.0086468

 Al 
  0.0144461  0.7508923  0.2410537

 Al 
  0.2587694  0.5023761  0.2550146

 Al 
  0.2630897  0.7476412  0.9986077

 Al 
  0.0004666  0.9902121  0.4855255

 Al 
  0.9807250  0.2501312  0.7486313

 Al 
  0.2408779  0.0019157  0.7335478

 Al 
  0.2404856  0.2559910  0.5105564

 Al 
  0.9979927  0.4930684  0.4899102

 Al 
  0.0095787  0.7285691  0.7490991

 Al 
  0.2542708  0.4996980  0.7597198

 Al 
  0.2476474  0.7448121  0.4949718

 Al 
  0.5183456  0.5119091  0.0233107

 Al 
  0.5011150  0.7425066  0.2702403

 Al 
  0.7548735  0.4998082  0.2755470

 Al 
  0.7460943  0.7398285  0.0033352

 Al 
  0.5194297  0.0113472  0.4962527

 Al 
  0.4893632  0.2622197  0.7410957

 Al 
  0.7459358  0.9964742  0.7529268

 Al 
  0.7529442  0.2537152  0.4979357

 Al 
  0.4858757  0.5073808  0.5164361

 Al 
  0.5030951  0.7517536  0.7631751

 Al 
  0.7416415  0.5030828  0.7347706

 Al 
  0.7572905  0.7460547  0.4988169

