32 
charge = 0 
 Al 
  0.0129028  0.9828041  0.9883855

 Al 
  0.9860440  0.2461697  0.2459457

 Al 
  0.2708703  0.0034726  0.2535753

 Al 
  0.2592953  0.2566160  0.9974234

 Al 
  0.4912937  0.0088411  0.9909138

 Al 
  0.4748936  0.2785629  0.2512623

 Al 
  0.7431897  0.9909324  0.2315529

 Al 
  0.7294057  0.2814836  0.9951079

 Al 
  0.0042411  0.4777660  0.0071110

 Al 
  0.0139015  0.7491164  0.2366665

 Al 
  0.2586902  0.5042349  0.2529578

 Al 
  0.2659658  0.7478850  0.0001015

 Al 
  0.0001250  0.9873472  0.4865477

 Al 
  0.9836741  0.2467341  0.7530147

 Al 
  0.2414522  0.0037189  0.7309725

 Al 
  0.2425882  0.2501634  0.5139003

 Al 
  0.0001497  0.4950337  0.4914979

 Al 
  0.0139374  0.7258019  0.7457564

 Al 
  0.2525865  0.5005074  0.7560467

 Al 
  0.2488553  0.7435115  0.4938951

 Al 
  0.5115749  0.5133323  0.0240694

 Al 
  0.4996931  0.7426155  0.2714346

 Al 
  0.7525580  0.4991250  0.2748094

 Al 
  0.7493540  0.7386305  0.0034144

 Al 
  0.5149448  0.0094599  0.4929979

 Al 
  0.4901094  0.2617432  0.7420165

 Al 
  0.7514752  0.9976660  0.7511497

 Al 
  0.7533167  0.2554193  0.4972427

 Al 
  0.4892134  0.5070739  0.5161242

 Al 
  0.4976412  0.7511249  0.7577806

 Al 
  0.7387741  0.5040914  0.7445943

 Al 
  0.7572868  0.7390142  0.5017289

