32 
charge = 0 
 Al 
  0.0118794  0.9869103  0.9902926

 Al 
  0.9839513  0.2484444  0.2454693

 Al 
  0.2713232  0.0013007  0.2542473

 Al 
  0.2612903  0.2541322  0.9991572

 Al 
  0.4931761  0.0140364  0.9885365

 Al 
  0.4744802  0.2789738  0.2496906

 Al 
  0.7423840  0.9935535  0.2332842

 Al 
  0.7317373  0.2844092  0.0002054

 Al 
  0.0020061  0.4803624  0.0052238

 Al 
  0.0126751  0.7466227  0.2326407

 Al 
  0.2558475  0.5067125  0.2507958

 Al 
  0.2678778  0.7480904  0.0020667

 Al 
  0.9993367  0.9849451  0.4876516

 Al 
  0.9876702  0.2437528  0.7571556

 Al 
  0.2431167  0.0045579  0.7292622

 Al 
  0.2446636  0.2448418  0.5153866

 Al 
  0.0035889  0.4971536  0.4942243

 Al 
  0.0172120  0.7238899  0.7430622

 Al 
  0.2507673  0.5010742  0.7526273

 Al 
  0.2502228  0.7427875  0.4937169

 Al 
  0.5026113  0.5151205  0.0226338

 Al 
  0.4988862  0.7437429  0.2714185

 Al 
  0.7495520  0.4988045  0.2716969

 Al 
  0.7538228  0.7379622  0.0031335

 Al 
  0.5095886  0.0073016  0.4904930

 Al 
  0.4917950  0.2601282  0.7438209

 Al 
  0.7567422  0.9986412  0.7491473

 Al 
  0.7525754  0.2561185  0.4969902

 Al 
  0.4932231  0.5061210  0.5145488

 Al 
  0.4921501  0.7510804  0.7512796

 Al 
  0.7367828  0.5051322  0.7550579

 Al 
  0.7570640  0.7332929  0.5050839

