32 
charge = 0 
 Al 
  0.0123434  0.9850144  0.9893941

 Al 
  0.9846691  0.2475521  0.2456661

 Al 
  0.2713381  0.0022746  0.2539837

 Al 
  0.2606146  0.2552188  0.9984407

 Al 
  0.4922034  0.0117940  0.9895946

 Al 
  0.4742451  0.2792015  0.2501460

 Al 
  0.7426885  0.9922640  0.2324254

 Al 
  0.7306272  0.2835070  0.9978231

 Al 
  0.0029677  0.4789045  0.0061024

 Al 
  0.0133112  0.7478046  0.2343287

 Al 
  0.2574885  0.5055641  0.2517289

 Al 
  0.2671922  0.7479729  0.0011621

 Al 
  0.9997413  0.9859339  0.4871826

 Al 
  0.9857755  0.2449817  0.7553970

 Al 
  0.2422405  0.0043525  0.7298475

 Al 
  0.2437751  0.2470583  0.5150277

 Al 
  0.0019281  0.4962428  0.4929063

 Al 
  0.0159497  0.7245780  0.7441253

 Al 
  0.2515531  0.5009047  0.7540802

 Al 
  0.2496052  0.7430350  0.4936884

 Al 
  0.5067831  0.5142852  0.0235892

 Al 
  0.4991362  0.7431192  0.2716029

 Al 
  0.7509418  0.4988713  0.2733689

 Al 
  0.7517450  0.7381776  0.0033105

 Al 
  0.5120118  0.0082694  0.4914559

 Al 
  0.4909200  0.2609797  0.7429125

 Al 
  0.7545109  0.9982587  0.7500631

 Al 
  0.7530494  0.2559576  0.4970088

 Al 
  0.4913965  0.5066408  0.5154027

 Al 
  0.4945287  0.7510024  0.7542585

 Al 
  0.7375328  0.5046656  0.7504257

 Al 
  0.7571902  0.7356133  0.5035530

