32 
charge = 0 
 Al 
  0.0121120  0.9859438  0.9898297

 Al 
  0.9842669  0.2480187  0.2455633

 Al 
  0.2713752  0.0017908  0.2541248

 Al 
  0.2609970  0.2546730  0.9988082

 Al 
  0.4926588  0.0129251  0.9890686

 Al 
  0.4742822  0.2791693  0.2498701

 Al 
  0.7425264  0.9928815  0.2328350

 Al 
  0.7311692  0.2840354  0.9989852

 Al 
  0.0024788  0.4795703  0.0056742

 Al 
  0.0130142  0.7472291  0.2334662

 Al 
  0.2567460  0.5061296  0.2512561

 Al 
  0.2675672  0.7480211  0.0016076

 Al 
  0.9995495  0.9854265  0.4874214

 Al 
  0.9866937  0.2443493  0.7562893

 Al 
  0.2426501  0.0044911  0.7295171

 Al 
  0.2442255  0.2459222  0.5152690

 Al 
  0.0027313  0.4967056  0.4935449

 Al 
  0.0166180  0.7241993  0.7435672

 Al 
  0.2511546  0.5010099  0.7533439

 Al 
  0.2499109  0.7428976  0.4936835

 Al 
  0.5047386  0.5146936  0.0231783

 Al 
  0.4989889  0.7434075  0.2715472

 Al 
  0.7502587  0.4988206  0.2725905

 Al 
  0.7527647  0.7380526  0.0032325

 Al 
  0.5108101  0.0077892  0.4909448

 Al 
  0.4913296  0.2605812  0.7433444

 Al 
  0.7556458  0.9984605  0.7496139

 Al 
  0.7528414  0.2560678  0.4969791

 Al 
  0.4922986  0.5064019  0.5150067

 Al 
  0.4933308  0.7510210  0.7527932

 Al 
  0.7371331  0.5048970  0.7527375

 Al 
  0.7571333  0.7344154  0.5043067

