32 
charge = 0 
 Al 
  0.0117618  0.9874090  0.9905351

 Al 
  0.9838263  0.2486424  0.2454260

 Al 
  0.2712601  0.0010532  0.2542993

 Al 
  0.2614029  0.2538637  0.9993243

 Al 
  0.4934595  0.0145871  0.9882679

 Al 
  0.4746386  0.2788154  0.2496349

 Al 
  0.7423184  0.9939100  0.2335243

 Al 
  0.7320318  0.2845391  0.0008415

 Al 
  0.0017771  0.4808079  0.0049886

 Al 
  0.0124895  0.7463071  0.2322410

 Al 
  0.2553376  0.5070083  0.2505705

 Al 
  0.2680078  0.7481350  0.0023006

 Al 
  0.9992216  0.9847112  0.4877605

 Al 
  0.9881813  0.2434681  0.7575788

 Al 
  0.2433716  0.0045641  0.7291644

 Al 
  0.2448777  0.2443233  0.5153978

 Al 
  0.0040382  0.4973689  0.4945807

 Al 
  0.0174818  0.7237624  0.7428308

 Al 
  0.2505804  0.5010891  0.7522759

 Al 
  0.2503812  0.7427405  0.4937466

 Al 
  0.5015135  0.5153408  0.0223095

 Al 
  0.4988528  0.7439298  0.2713257

 Al 
  0.7491894  0.4988107  0.2712044

 Al 
  0.7543661  0.7379301  0.0030766

 Al 
  0.5089686  0.0070553  0.4902901

 Al 
  0.4920499  0.2598819  0.7440770

 Al 
  0.7572781  0.9987228  0.7489085

 Al 
  0.7524219  0.2561235  0.4970138

 Al 
  0.4936959  0.5059626  0.5142963

 Al 
  0.4915648  0.7511262  0.7505012

 Al 
  0.7366244  0.5052522  0.7562262

 Al 
  0.7570244  0.7327558  0.5054849

