32 
charge = 0 
 Al 
  0.0107915  0.9918457  0.9928432

 Al 
  0.9837063  0.2499480  0.2452601

 Al 
  0.2697936  0.9990199  0.2543723

 Al 
  0.2613794  0.2517214  0.0005235

 Al 
  0.4964185  0.0188209  0.9860527

 Al 
  0.4772944  0.2760631  0.2500186

 Al 
  0.7419447  0.9973194  0.2358509

 Al 
  0.7345812  0.2841320  0.0066172

 Al 
  0.0001695  0.4856344  0.0027919

 Al 
  0.0105267  0.7435238  0.2294032

 Al 
  0.2497995  0.5093696  0.2489060

 Al 
  0.2684013  0.7488998  0.0042250

 Al 
  0.9981003  0.9829749  0.4884944

 Al 
  0.9929583  0.2415685  0.7607606

 Al 
  0.2459792  0.0038637  0.7292250

 Al 
  0.2464952  0.2407220  0.5142542

 Al 
  0.0080899  0.4988008  0.4977563

 Al 
  0.0189075  0.7235149  0.7415301

 Al 
  0.2492822  0.5006361  0.7495755

 Al 
  0.2517252  0.7425734  0.4942627

 Al 
  0.4919336  0.5172021  0.0183407

 Al 
  0.4990656  0.7458653  0.2697911

 Al 
  0.7460844  0.4992810  0.2662034

 Al 
  0.7590404  0.7380996  0.0024170

 Al 
  0.5038067  0.0049800  0.4892617

 Al 
  0.4946612  0.2574464  0.7465571

 Al 
  0.7612717  0.9991263  0.7467861

 Al 
  0.7506967  0.2556953  0.4976981

 Al 
  0.4977291  0.5041891  0.5117024

 Al 
  0.4870081  0.7519009  0.7437206

 Al 
  0.7357470  0.5062918  0.7657777

 Al 
  0.7566123  0.7289701  0.5090206

