32 
charge = 0 
 Al 
  0.0110391  0.9906614  0.9921984

 Al 
  0.9835800  0.2496646  0.2452651

 Al 
  0.2703319  0.9995334  0.2544243

 Al 
  0.2615489  0.2522536  0.0002450

 Al 
  0.4955572  0.0177999  0.9866120

 Al 
  0.4764096  0.2769950  0.2497884

 Al 
  0.7420152  0.9963764  0.2352012

 Al 
  0.7339179  0.2844822  0.0050579

 Al 
  0.0005247  0.4842161  0.0033971

 Al 
  0.0111034  0.7442552  0.2300418

 Al 
  0.2514195  0.5087991  0.2492946

 Al 
  0.2684199  0.7486214  0.0037436

 Al 
  0.9984110  0.9833894  0.4883397

 Al 
  0.9916465  0.2419719  0.7600057

 Al 
  0.2452329  0.0041693  0.7290555

 Al 
  0.2461103  0.2415202  0.5147530

 Al 
  0.0070133  0.4985075  0.4969160

 Al 
  0.0186822  0.7234320  0.7417541

 Al 
  0.2495619  0.5008589  0.7502302

 Al 
  0.2513774  0.7425833  0.4940944

 Al 
  0.4944483  0.5167318  0.0195671

 Al 
  0.4989283  0.7453096  0.2703158

 Al 
  0.7468900  0.4990842  0.2676241

 Al 
  0.7578288  0.7379721  0.0026137

 Al 
  0.5051235  0.0055158  0.4894127

 Al 
  0.4939112  0.2581258  0.7458703

 Al 
  0.7603262  0.9990743  0.7473491

 Al 
  0.7512054  0.2558747  0.4974382

 Al 
  0.4966821  0.5047238  0.5124425

 Al 
  0.4881194  0.7516385  0.7455064

 Al 
  0.7359042  0.5060195  0.7633644

 Al 
  0.7567311  0.7298364  0.5080776

