32 
charge = 0 
 Al 
  0.0104141  0.9936971  0.9938963

 Al 
  0.9841072  0.2503242  0.2453146

 Al 
  0.2687590  0.9982575  0.2541817

 Al 
  0.2609104  0.2509368  0.0009170

 Al 
  0.4978528  0.0202614  0.9852334

 Al 
  0.4788575  0.2743862  0.2505136

 Al 
  0.7418667  0.9988268  0.2368992

 Al 
  0.7355886  0.2832867  0.0090639

 Al 
  0.9997203  0.4879919  0.0018180

 Al 
  0.0095503  0.7424137  0.2285704

 Al 
  0.2471326  0.5101480  0.2483751

 Al 
  0.2682107  0.7494592  0.0049205

 Al 
  0.9976103  0.9823833  0.4886788

 Al 
  0.9950584  0.2410747  0.7618175

 Al 
  0.2471969  0.0032375  0.7296916

 Al 
  0.2470373  0.2396812  0.5132394

 Al 
  0.0097384  0.4991275  0.4990446

 Al 
  0.0190622  0.7238528  0.7413408

 Al 
  0.2489468  0.5001448  0.7486313

 Al 
  0.2522511  0.7425981  0.4945436

 Al 
  0.4880872  0.5178778  0.0162282

 Al 
  0.4993849  0.7467724  0.2688159

 Al 
  0.7448654  0.4996894  0.2639015

 Al 
  0.7608658  0.7384263  0.0020878

 Al 
  0.5018378  0.0041656  0.4891788

 Al 
  0.4958938  0.2563673  0.7476486

 Al 
  0.7626021  0.9991288  0.7459185

 Al 
  0.7498614  0.2553500  0.4982043

 Al 
  0.4993119  0.5032721  0.5104945

 Al 
  0.4854190  0.7523736  0.7409794

 Al 
  0.7355824  0.5067051  0.7693580

 Al 
  0.7564168  0.7277808  0.5104933

