32 
charge = 0 
 Al 
  0.0114041  0.9889770  0.9913185

 Al 
  0.9835912  0.2491869  0.2453220

 Al 
  0.2709210  0.0003007  0.2544070

 Al 
  0.2615935  0.2530568  0.9998020

 Al 
  0.4944198  0.0162145  0.9874486

 Al 
  0.4753515  0.2780914  0.2496089

 Al 
  0.7421489  0.9950733  0.2343102

 Al 
  0.7329501  0.2846926  0.0028600

 Al 
  0.0011212  0.4823511  0.0042337

 Al 
  0.0118583  0.7453134  0.2310950

 Al 
  0.2535629  0.5079080  0.2499146

 Al 
  0.2682974  0.7483231  0.0030159

 Al 
  0.9988416  0.9840354  0.4880699

 Al 
  0.9898260  0.2426724  0.7588176

 Al 
  0.2442305  0.0044627  0.7290023

 Al 
  0.2455064  0.2428518  0.5152319

 Al 
  0.0054700  0.4979778  0.4957069

 Al 
  0.0181748  0.7234964  0.7422219

 Al 
  0.2500433  0.5010482  0.7512388

 Al 
  0.2508700  0.7426365  0.4938877

 Al 
  0.4980830  0.5160252  0.0211128

 Al 
  0.4988293  0.7445634  0.2709210

 Al 
  0.7480657  0.4988924  0.2695485

 Al 
  0.7560579  0.7378954  0.0028699

 Al 
  0.5070714  0.0062992  0.4897753

 Al 
  0.4929075  0.2590614  0.7449198

 Al 
  0.7588374  0.9989320  0.7481548

 Al 
  0.7518749  0.2560566  0.4971623

 Al 
  0.4951574  0.5054094  0.5134412

 Al 
  0.4898272  0.7513304  0.7480768

 Al 
  0.7362173  0.5056260  0.7597668

 Al 
  0.7568907  0.7312348  0.5067361

