32 
charge = 0 
 Al 
  0.0109153  0.9912480  0.9925140

 Al 
  0.9836295  0.2498094  0.2452589

 Al 
  0.2700782  0.9992773  0.2544057

 Al 
  0.2614784  0.2519863  0.0003861

 Al 
  0.4959779  0.0183147  0.9863324

 Al 
  0.4768353  0.2765482  0.2498936

 Al 
  0.7419781  0.9968405  0.2355205

 Al 
  0.7342483  0.2843287  0.0058289

 Al 
  0.0003428  0.4849079  0.0030989

 Al 
  0.0108225  0.7438914  0.2297151

 Al 
  0.2506274  0.5090874  0.2490978

 Al 
  0.2684211  0.7487513  0.0039850

 Al 
  0.9982575  0.9831815  0.4884201

 Al 
  0.9922925  0.2417628  0.7603869

 Al 
  0.2455980  0.0040283  0.7291273

 Al 
  0.2463046  0.2411118  0.5145216

 Al 
  0.0075479  0.4986610  0.4973331

 Al 
  0.0188060  0.7234605  0.7416328

 Al 
  0.2494171  0.5007586  0.7499010

 Al 
  0.2515507  0.7425759  0.4941760

 Al 
  0.4931984  0.5169682  0.0189731

 Al 
  0.4989901  0.7455819  0.2700658

 Al 
  0.7464878  0.4991745  0.2669274

 Al 
  0.7584328  0.7380266  0.0025172

 Al 
  0.5044664  0.0052497  0.4893273

 Al 
  0.4942787  0.2577917  0.7462093

 Al 
  0.7608039  0.9991052  0.7470707

 Al 
  0.7509566  0.2557906  0.4975595

 Al 
  0.4972031  0.5044651  0.5120798

 Al 
  0.4875600  0.7517635  0.7446191

 Al 
  0.7358212  0.5061544  0.7645723

 Al 
  0.7566729  0.7293971  0.5085441

