32 
charge = 0 
 Al 
  0.0094166  0.9986659  0.9970769

 Al 
  0.9863682  0.2510334  0.2458764

 Al 
  0.2648668  0.9964779  0.2529404

 Al 
  0.2585293  0.2490830  0.0018353

 Al 
  0.5022289  0.0231102  0.9834575

 Al 
  0.4838226  0.2687911  0.2524231

 Al 
  0.7418135  0.0030122  0.2398767

 Al 
  0.7381268  0.2793315  0.0155859

 Al 
  0.9991708  0.4949507  0.9990322

 Al 
  0.0064527  0.7397814  0.2274021

 Al 
  0.2395438  0.5114128  0.2473516

 Al 
  0.2667306  0.7518910  0.0063759

 Al 
  0.9963603  0.9810987  0.4888483

 Al 
  0.0009801  0.2405438  0.7639300

 Al 
  0.2506596  0.0008193  0.7321259

 Al 
  0.2481523  0.2380241  0.5092867

 Al 
  0.0137864  0.4991671  0.5022784

 Al 
  0.0184137  0.7260396  0.7417455

 Al 
  0.2486746  0.4979753  0.7465064

 Al 
  0.2535110  0.7428246  0.4952490

 Al 
  0.4784429  0.5191599  0.0095701

 Al 
  0.5007846  0.7493540  0.2652319

 Al 
  0.7418593  0.5014492  0.2574093

 Al 
  0.7651824  0.7402752  0.0011410

 Al 
  0.4971239  0.0021138  0.4897839

 Al 
  0.4995124  0.2535073  0.7505581

 Al 
  0.7653532  0.9986647  0.7437218

 Al 
  0.7475063  0.2541409  0.5001101

 Al 
  0.5031855  0.5003366  0.5070269

 Al 
  0.4820751  0.7539119  0.7340317

 Al 
  0.7354896  0.5076655  0.7777882

 Al 
  0.7558747  0.7253861  0.5144201

