32 
charge = 0 
 Al 
  0.0092941  0.9992488  0.9974915

 Al 
  0.9867556  0.2510915  0.2459891

 Al 
  0.2642963  0.9962985  0.2527152

 Al 
  0.2581444  0.2488899  0.0019417

 Al 
  0.5027944  0.0233268  0.9833053

 Al 
  0.4844624  0.2680375  0.2526880

 Al 
  0.7418209  0.0035134  0.2402418

 Al 
  0.7384127  0.2786991  0.0163346

 Al 
  0.9991783  0.4958096  0.9986882

 Al 
  0.0060356  0.7395240  0.2273860

 Al 
  0.2386429  0.5114623  0.2472687

 Al 
  0.2664546  0.7522883  0.0064972

 Al 
  0.9962291  0.9809787  0.4888359

 Al 
  0.0017016  0.2405599  0.7641020

 Al 
  0.2510717  0.0004740  0.7325306

 Al 
  0.2482488  0.2379362  0.5087112

 Al 
  0.0142085  0.4990854  0.5026298

 Al 
  0.0182392  0.7264306  0.7418828

 Al 
  0.2487092  0.4976363  0.7462935

 Al 
  0.2536360  0.7428617  0.4953096

 Al 
  0.4773972  0.5192416  0.0087038

 Al 
  0.5010000  0.7496646  0.2647084

 Al 
  0.7415338  0.5017289  0.2566284

 Al 
  0.7656119  0.7406143  0.0010284

 Al 
  0.4966338  0.0018885  0.4899312

 Al 
  0.4999653  0.2531880  0.7508861

 Al 
  0.7655982  0.9985620  0.7434855

 Al 
  0.7472291  0.2539763  0.5003849

 Al 
  0.5035926  0.4999468  0.5066012

 Al 
  0.4817868  0.7541075  0.7332756

 Al 
  0.7355020  0.5077533  0.7786508

 Al 
  0.7558116  0.7251757  0.5148730

