32 
charge = 0 
 Al 
  0.0099116  0.9962205  0.9954396

 Al 
  0.9850354  0.2507326  0.2455175

 Al 
  0.2669893  0.9973021  0.2536929

 Al 
  0.2599005  0.2499505  0.0013960

 Al 
  0.4999790  0.0219098  0.9842384

 Al 
  0.4812608  0.2717304  0.2513972

 Al 
  0.7418123  0.0009319  0.2383818

 Al 
  0.7369041  0.2815863  0.0123967

 Al 
  0.9993144  0.4914311  0.0004344

 Al 
  0.0080714  0.7409967  0.2277672

 Al 
  0.2433234  0.5109599  0.2477835

 Al 
  0.2676415  0.7505037  0.0057435

 Al 
  0.9969544  0.9816754  0.4888248

 Al 
  0.9980137  0.2406614  0.7630266

 Al 
  0.2489332  0.0021323  0.7307101

 Al 
  0.2476660  0.2386379  0.5114450

 Al 
  0.0118806  0.4993057  0.5007339

 Al 
  0.0189186  0.7247203  0.7413816

 Al 
  0.2486882  0.4991981  0.7474803

 Al 
  0.2529256  0.7426910  0.4949285

 Al 
  0.4830454  0.5186439  0.0130130

 Al 
  0.5000000  0.7480645  0.2671811

 Al 
  0.7432887  0.5004542  0.2606480

 Al 
  0.7631850  0.7391627  0.0016138

 Al 
  0.4993317  0.0030989  0.4893421

 Al 
  0.4976771  0.2548946  0.7491424

 Al 
  0.7641466  0.9989815  0.7447713

 Al 
  0.7486746  0.2547819  0.4990755

 Al 
  0.5013588  0.5018662  0.5087706

 Al 
  0.4835404  0.7531174  0.7373583

 Al 
  0.7354846  0.5072286  0.7738652

 Al 
  0.7561433  0.7264281  0.5124981

