32 
charge = 0 
 Al 
  0.0102879  0.9943258  0.9942701

 Al 
  0.9842978  0.2504356  0.2453505

 Al 
  0.2683568  0.9980100  0.2540852

 Al 
  0.2606975  0.2506819  0.0010408

 Al 
  0.4983652  0.0207081  0.9849698

 Al 
  0.4794305  0.2737612  0.2507141

 Al 
  0.7418469  0.9993466  0.2372630

 Al 
  0.7359227  0.2829204  0.0098968

 Al 
  0.9995966  0.4888285  0.0014789

 Al 
  0.0091976  0.7420487  0.2283340

 Al 
  0.2461970  0.5103794  0.2482130

 Al 
  0.2681018  0.7496869  0.0051396

 Al 
  0.9974444  0.9821964  0.4887270

 Al 
  0.9957861  0.2409435  0.7621442

 Al 
  0.2476226  0.0029875  0.7299045

 Al 
  0.2472056  0.2393805  0.5128348

 Al 
  0.0102854  0.4992005  0.4994740

 Al 
  0.0190634  0.7240248  0.7413197

 Al 
  0.2488602  0.4999381  0.7483293

 Al 
  0.2524244  0.7426155  0.4946414

 Al 
  0.4868063  0.5180870  0.0154596

 Al 
  0.4995186  0.7470905  0.2684409

 Al 
  0.7444631  0.4998577  0.2630996

 Al 
  0.7614635  0.7385773  0.0019714

 Al 
  0.5011930  0.0038958  0.4891911

 Al 
  0.4963282  0.2559985  0.7480224

 Al 
  0.7630154  0.9991090  0.7456277

 Al 
  0.7495693  0.2552176  0.4984023

 Al 
  0.4998366  0.5029380  0.5100725

 Al 
  0.4849191  0.7525506  0.7400611

 Al 
  0.7355465  0.5068400  0.7705225

 Al 
  0.7563499  0.7274157  0.5109945

