32 
charge = 0 
 Al 
  0.0097866  0.9968442  0.9958430

 Al 
  0.9853336  0.2508168  0.2455930

 Al 
  0.2664868  0.9970806  0.2535283

 Al 
  0.2595874  0.2497203  0.0015098

 Al 
  0.5005346  0.0222576  0.9840194

 Al 
  0.4818957  0.2710138  0.2516447

 Al 
  0.7418073  0.0014603  0.2387580

 Al 
  0.7372209  0.2810690  0.0132172

 Al 
  0.9992525  0.4923147  0.0000829

 Al 
  0.0076766  0.7406688  0.2276323

 Al 
  0.2423618  0.5111096  0.2476610

 Al 
  0.2674447  0.7508193  0.0059217

 Al 
  0.9967984  0.9815182  0.4888421

 Al 
  0.9987612  0.2406032  0.7632840

 Al 
  0.2493713  0.0018192  0.7310306

 Al 
  0.2478021  0.2384436  0.5109326

 Al 
  0.0123868  0.4993008  0.5011386

 Al 
  0.0188233  0.7250099  0.7414435

 Al 
  0.2486610  0.4989159  0.7472192

 Al 
  0.2530828  0.7427207  0.4950176

 Al 
  0.4818400  0.5188010  0.0121628

 Al 
  0.5001832  0.7483912  0.2667195

 Al 
  0.7429137  0.5006831  0.2598275

 Al 
  0.7637221  0.7394052  0.0014937

 Al 
  0.4987463  0.0028414  0.4894287

 Al 
  0.4981362  0.2545344  0.7495087

 Al 
  0.7644820  0.9989171  0.7444966

 Al 
  0.7483763  0.2546260  0.4993218

 Al 
  0.5018415  0.5014913  0.5083313

 Al 
  0.4831308  0.7533154  0.7364883

 Al 
  0.7354784  0.5073486  0.7749109

 Al 
  0.7560740  0.7261373  0.5129919

