32 
charge = 0 
 Al 
  0.0083003  0.0033699  0.0007809

 Al 
  0.9904361  0.2513626  0.2472130

 Al 
  0.2593919  0.9952824  0.2505062

 Al 
  0.2547461  0.2477043  0.0027858

 Al 
  0.5071741  0.0238008  0.9828226

 Al 
  0.4892629  0.2620464  0.2546644

 Al 
  0.7419930  0.0070591  0.2429917

 Al 
  0.7404497  0.2729296  0.0213529

 Al 
  0.9998206  0.5019888  0.9961289

 Al 
  0.0026261  0.7382803  0.2283860

 Al 
  0.2324910  0.5109475  0.2469024

 Al 
  0.2636837  0.7560579  0.0069006

 Al 
  0.9955039  0.9803995  0.4885228

 Al 
  0.0069650  0.2412232  0.7646713

 Al 
  0.2538736  0.9977464  0.7362804

 Al 
  0.2486622  0.2380043  0.5039317

 Al 
  0.0166056  0.4978565  0.5048970

 Al 
  0.0163903  0.7302671  0.7434719

 Al 
  0.2494666  0.4946785  0.7450114

 Al 
  0.2542250  0.7431501  0.4953963

 Al 
  0.4707985  0.5191414  0.0020729

 Al 
  0.5028563  0.7518687  0.2601505

 Al 
  0.7394386  0.5043030  0.2510581

 Al 
  0.7678531  0.7442107  0.0002327

 Al 
  0.4937169  0.0004232  0.4914559

 Al 
  0.5033464  0.2511831  0.7530011

 Al 
  0.7667677  0.9974952  0.7420487

 Al 
  0.7454049  0.2526422  0.5026731

 Al 
  0.5060294  0.4968888  0.5034800

 Al 
  0.4806854  0.7554230  0.7285753

 Al 
  0.7356517  0.5081036  0.7837211

 Al 
  0.7553834  0.7241597  0.5179125

