32 
charge = 0 
 Al 
  0.0085577  0.0024318  0.9999678

 Al 
  0.9894300  0.2513242  0.2468529

 Al 
  0.2606616  0.9954668  0.2511163

 Al 
  0.2556284  0.2479419  0.0025679

 Al 
  0.5061136  0.0238911  0.9828177

 Al 
  0.4881293  0.2635241  0.2542077

 Al 
  0.7419323  0.0062559  0.2423308

 Al 
  0.7399745  0.2744716  0.0202688

 Al 
  0.9995669  0.5005779  0.9967341

 Al 
  0.0034887  0.7384486  0.2279479

 Al 
  0.2338337  0.5112247  0.2469531

 Al 
  0.2644622  0.7550245  0.0068932

 Al 
  0.9956277  0.9804799  0.4886330

 Al 
  0.0057435  0.2409782  0.7646602

 Al 
  0.2532659  0.9984048  0.7352705

 Al 
  0.2486164  0.2378768  0.5051384

 Al 
  0.0161749  0.4982476  0.5044181

 Al 
  0.0169113  0.7292052  0.7430053

 Al 
  0.2492055  0.4954458  0.7452700

 Al 
  0.2541508  0.7430820  0.4954495

 Al 
  0.4721548  0.5192899  0.0036632

 Al 
  0.5023774  0.7513663  0.2613435

 Al 
  0.7398805  0.5036112  0.2523328

 Al 
  0.7674954  0.7431612  0.0004133

 Al 
  0.4942837  0.0007326  0.4910301

 Al 
  0.5025469  0.2515890  0.7525605

 Al 
  0.7665957  0.9977959  0.7423284

 Al 
  0.7457861  0.2529751  0.5020927

 Al 
  0.5055554  0.4976350  0.5042090

 Al 
  0.4807609  0.7551483  0.7295183

 Al 
  0.7356109  0.5080800  0.7827509

 Al 
  0.7554762  0.7243132  0.5172553

