32 
charge = 0 
 Al 
  0.0081667  0.0038191  0.0011856

 Al 
  0.9909584  0.2513762  0.2474085

 Al 
  0.2587471  0.9952057  0.2501881

 Al 
  0.2543018  0.2475979  0.0028971

 Al 
  0.5076964  0.0237055  0.9828560

 Al 
  0.4898124  0.2613113  0.2548809

 Al 
  0.7420289  0.0074402  0.2433184

 Al 
  0.7406836  0.2721375  0.0218529

 Al 
  0.9999691  0.5026608  0.9958344

 Al 
  0.0021905  0.7382308  0.2286520

 Al 
  0.2318697  0.5107742  0.2468851

 Al 
  0.2632753  0.7565950  0.0068821

 Al 
  0.9954581  0.9803747  0.4884610

 Al 
  0.0075528  0.2413631  0.7646441

 Al 
  0.2541533  0.9974283  0.7368026

 Al 
  0.2486721  0.2380909  0.5033290

 Al 
  0.0167789  0.4976412  0.5051173

 Al 
  0.0161193  0.7308227  0.7437194

 Al 
  0.2496139  0.4942911  0.7448951

 Al 
  0.2542424  0.7431823  0.4953505

 Al 
  0.4701871  0.5190374  0.0012957

 Al 
  0.5030976  0.7521088  0.2595404

 Al 
  0.7392369  0.5046594  0.2504492

 Al 
  0.7679805  0.7447750  0.0001460

 Al 
  0.4934706  0.0002822  0.4916774

 Al 
  0.5037337  0.2510024  0.7532003

 Al 
  0.7668271  0.9973380  0.7419299

 Al 
  0.7452354  0.2524764  0.5029627

 Al 
  0.5062336  0.4965212  0.5031273

 Al 
  0.4806965  0.7555430  0.7281607

 Al 
  0.7356703  0.5080974  0.7841369

 Al 
  0.7553401  0.7241065  0.5182144

