32 
charge = 0 
 Al 
  0.0080293  0.0042547  0.0015890

 Al 
  0.9914942  0.2513873  0.2476127

 Al 
  0.2580949  0.9951401  0.2498626

 Al 
  0.2538562  0.2475001  0.0030122

 Al 
  0.5082125  0.0235743  0.9829105

 Al 
  0.4903495  0.2605799  0.2550889

 Al 
  0.7420672  0.0078078  0.2436439

 Al 
  0.7409163  0.2713294  0.0223256

 Al 
  0.0001312  0.5033092  0.9955448

 Al 
  0.0017536  0.7382060  0.2289503

 Al 
  0.2312819  0.5105774  0.2468702

 Al 
  0.2628546  0.7571457  0.0068474

 Al 
  0.9954210  0.9803611  0.4883954

 Al 
  0.0081246  0.2415140  0.7645958

 Al 
  0.2544156  0.9971177  0.7373348

 Al 
  0.2486733  0.2381912  0.5027251

 Al 
  0.0169237  0.4974160  0.5053265

 Al 
  0.0158420  0.7313945  0.7439755

 Al 
  0.2497711  0.4939013  0.7447849

 Al 
  0.2542461  0.7432132  0.4952911

 Al 
  0.4696191  0.5189137  0.0005309

 Al 
  0.5033402  0.7523427  0.2589204

 Al 
  0.7390463  0.5050220  0.2498564

 Al 
  0.7680771  0.7453678  0.0000619

 Al 
  0.4932491  0.0001497  0.4919026

 Al 
  0.5041149  0.2508378  0.7533872

 Al 
  0.7668705  0.9971771  0.7418222

 Al 
  0.7450795  0.2523118  0.5032548

 Al 
  0.5064168  0.4961561  0.5027820

 Al 
  0.4807386  0.7556507  0.7277833

 Al 
  0.7356901  0.5080800  0.7845094

 Al 
  0.7553005  0.7240669  0.5185003

