32 
charge = 0 
 Al 
  0.0060938  0.0084303  0.0060641

 Al 
  0.9982909  0.2513316  0.2506596

 Al 
  0.2503515  0.9950436  0.2458406

 Al 
  0.2489580  0.2468851  0.0045864

 Al 
  0.5136194  0.0198777  0.9849512

 Al 
  0.4956562  0.2524937  0.2567262

 Al 
  0.7427751  0.0109413  0.2474494

 Al 
  0.7436822  0.2614462  0.0257908

 Al 
  0.0028142  0.5091728  0.9926217

 Al 
  0.9965757  0.7395277  0.2344624

 Al 
  0.2269244  0.5070096  0.2468034

 Al 
  0.2572942  0.7640599  0.0055468

 Al 
  0.9957019  0.9809576  0.4874697

 Al 
  0.0135402  0.2437701  0.7626553

 Al 
  0.2562386  0.9943159  0.7439854

 Al 
  0.2481783  0.2399584  0.4960200

 Al 
  0.0166291  0.4942008  0.5071308

 Al 
  0.0124957  0.7388706  0.7472712

 Al 
  0.2520581  0.4895240  0.7437825

 Al 
  0.2533946  0.7434917  0.4936476

 Al 
  0.4657863  0.5163383  0.9928469

 Al 
  0.5060393  0.7546483  0.2512165

 Al 
  0.7375749  0.5094104  0.2440931

 Al 
  0.7669670  0.7539194  0.9992562

 Al 
  0.4921600  0.9991015  0.4946018

 Al 
  0.5079885  0.2498688  0.7546879

 Al 
  0.7664262  0.9951958  0.7414398

 Al 
  0.7444297  0.2504653  0.5066024

 Al 
  0.5071741  0.4922986  0.4992612

 Al 
  0.4832632  0.7559056  0.7259405

 Al 
  0.7359203  0.5070355  0.7860762

 Al 
  0.7549948  0.7245037  0.5205138

