32 
charge = 0 
 Al 
  0.0074316  0.0058871  0.0032016

 Al 
  0.9937689  0.2513997  0.2485422

 Al 
  0.2554106  0.9949755  0.2484877

 Al 
  0.2520667  0.2471870  0.0035110

 Al 
  0.5102309  0.0227167  0.9833436

 Al 
  0.4923977  0.2576667  0.2558277

 Al 
  0.7422566  0.0091431  0.2449532

 Al 
  0.7418531  0.2679508  0.0239505

 Al 
  0.0009183  0.5056965  0.9944310

 Al 
  0.9999604  0.7383471  0.2304688

 Al 
  0.2292547  0.5095713  0.2468393

 Al 
  0.2610353  0.7594847  0.0065690

 Al 
  0.9953777  0.9804143  0.4880946

 Al 
  0.0102730  0.2422157  0.7641911

 Al 
  0.2553054  0.9959581  0.7395772

 Al 
  0.2485978  0.2387085  0.5003094

 Al 
  0.0172207  0.4963975  0.5060690

 Al 
  0.0146800  0.7338473  0.7450795

 Al 
  0.2504925  0.4923259  0.7443963

 Al 
  0.2541273  0.7433295  0.4949087

 Al 
  0.4677442  0.5182305  0.9975855

 Al 
  0.5043191  0.7532226  0.2563239

 Al 
  0.7383904  0.5065368  0.2476288

 Al 
  0.7681303  0.7480249  0.9997488

 Al 
  0.4925821  0.9996918  0.4928432

 Al 
  0.5055777  0.2503168  0.7540060

 Al 
  0.7668915  0.9964965  0.7415190

 Al 
  0.7446067  0.2516497  0.5044354

 Al 
  0.5069502  0.4947243  0.5014603

 Al 
  0.4812237  0.7559527  0.7266348

 Al 
  0.7357643  0.5078895  0.7855886

 Al 
  0.7551606  0.7240434  0.5194743

