32 
charge = 0 
 Al 
  0.0036087  0.0112680  0.0096864

 Al 
  0.0047621  0.2511051  0.2543364

 Al 
  0.2433964  0.9957230  0.2423717

 Al 
  0.2453134  0.2468974  0.0063697

 Al 
  0.5175165  0.0137605  0.9885439

 Al 
  0.4992327  0.2457440  0.2570083

 Al 
  0.7439718  0.0120105  0.2514529

 Al 
  0.7467625  0.2524380  0.0261287

 Al 
  0.0060257  0.5124524  0.9905933

 Al 
  0.9917813  0.7427095  0.2420190

 Al 
  0.2262883  0.5025778  0.2466747

 Al 
  0.2515519  0.7703765  0.0033253

 Al 
  0.9968950  0.9826481  0.4867185

 Al 
  0.0166440  0.2461066  0.7592124

 Al 
  0.2562460  0.9931390  0.7504121

 Al 
  0.2472662  0.2418779  0.4904807

 Al 
  0.0136652  0.4908061  0.5083276

 Al 
  0.0096245  0.7466697  0.7503626

 Al 
  0.2543414  0.4860960  0.7427244

 Al 
  0.2515643  0.7436501  0.4909497

 Al 
  0.4654423  0.5128137  0.9878471

 Al 
  0.5079947  0.7565232  0.2436117

 Al 
  0.7370563  0.5131466  0.2398668

 Al 
  0.7632073  0.7636132  0.9986709

 Al 
  0.4927615  0.9985261  0.4969209

 Al 
  0.5109128  0.2498478  0.7550629

 Al 
  0.7650574  0.9935820  0.7420524

 Al 
  0.7456710  0.2488899  0.5095626

 Al 
  0.5062324  0.4894164  0.4964222

 Al 
  0.4879078  0.7546371  0.7273823

 Al 
  0.7363942  0.5049156  0.7844872

 Al 
  0.7549057  0.7260309  0.5204148

