32 
charge = 0 
 Al 
  0.0053685  0.0094327  0.0073053

 Al 
  0.0004171  0.2512710  0.2517784

 Al 
  0.2480459  0.9952007  0.2446513

 Al 
  0.2476672  0.2468380  0.0051408

 Al 
  0.5150067  0.0181241  0.9859772

 Al 
  0.4969407  0.2502277  0.2569390

 Al 
  0.7430994  0.0114734  0.2486709

 Al 
  0.7446055  0.2584600  0.0261732

 Al 
  0.0038129  0.5104190  0.9918989

 Al 
  0.9950126  0.7403990  0.2367123

 Al 
  0.2264071  0.5056371  0.2467724

 Al 
  0.2554713  0.7661663  0.0049094

 Al 
  0.9960039  0.9813908  0.4871912

 Al 
  0.0147381  0.2445312  0.7616715

 Al 
  0.2563883  0.9937924  0.7460658

 Al 
  0.2479036  0.2405834  0.4941525

 Al 
  0.0159175  0.4931142  0.5075405

 Al 
  0.0115267  0.7413296  0.7482885

 Al 
  0.2528130  0.4883323  0.7434842

 Al 
  0.2528798  0.7435473  0.4928679

 Al 
  0.4654101  0.5152765  0.9910017

 Al 
  0.5067509  0.7552584  0.2487810

 Al 
  0.7373373  0.5106913  0.2426514

 Al 
  0.7659769  0.7569427  0.9990582

 Al 
  0.4922331  0.9988998  0.4953789

 Al 
  0.5089909  0.2498168  0.7548599

 Al 
  0.7660574  0.9946253  0.7415660

 Al 
  0.7446488  0.2499431  0.5075788

 Al 
  0.5070058  0.4912925  0.4983231

 Al 
  0.4845874  0.7556334  0.7261398

 Al 
  0.7360254  0.5064489  0.7857965

 Al 
  0.7549515  0.7248985  0.5206747

