32 
charge = 0 
 Al 
  0.0058636  0.0087706  0.0064786

 Al 
  0.9989901  0.2513131  0.2510185

 Al 
  0.2495904  0.9950869  0.2454458

 Al 
  0.2485236  0.2468640  0.0047659

 Al 
  0.5140884  0.0193295  0.9852718

 Al 
  0.4960930  0.2517400  0.2568091

 Al 
  0.7428754  0.0111368  0.2478442

 Al 
  0.7439793  0.2604611  0.0259467

 Al 
  0.0031360  0.5096035  0.9923766

 Al 
  0.9960608  0.7397938  0.2351777

 Al 
  0.2267190  0.5065677  0.2467947

 Al 
  0.2567002  0.7647555  0.0053475

 Al 
  0.9957923  0.9810876  0.4873756

 Al 
  0.0139548  0.2440189  0.7623484

 Al 
  0.2563054  0.9941290  0.7446673

 Al 
  0.2480917  0.2401626  0.4953987

 Al 
  0.0164237  0.4938468  0.5072694

 Al 
  0.0121739  0.7396701  0.7476066

 Al 
  0.2523056  0.4891243  0.7436872

 Al 
  0.2532350  0.7435115  0.4934038

 Al 
  0.4656317  0.5160004  0.9922170

 Al 
  0.5062806  0.7548512  0.2504208

 Al 
  0.7374882  0.5098361  0.2436092

 Al 
  0.7666687  0.7548958  0.9991894

 Al 
  0.4921687  0.9990322  0.4948604

 Al 
  0.5083238  0.2498441  0.7547510

 Al 
  0.7663135  0.9950040  0.7414720

 Al 
  0.7444817  0.2502921  0.5069242

 Al 
  0.5071345  0.4919596  0.4989493

 Al 
  0.4836753  0.7558326  0.7259740

 Al 
  0.7359512  0.5068549  0.7860131

 Al 
  0.7549775  0.7246225  0.5205881

