32 
charge = 0 
 Al 
  0.0048277  0.0100725  0.0081234

 Al 
  0.0018712  0.2512215  0.2525902

 Al 
  0.2464853  0.9953468  0.2438642

 Al 
  0.2468393  0.2468343  0.0055369

 Al 
  0.5158940  0.0167851  0.9867655

 Al 
  0.4977513  0.2487142  0.2570157

 Al 
  0.7433555  0.0117358  0.2495471

 Al 
  0.7452787  0.2564378  0.0262809

 Al 
  0.0045270  0.5111678  0.9914398

 Al 
  0.9939421  0.7410933  0.2383768

 Al 
  0.2262301  0.5046508  0.2467464

 Al 
  0.2541941  0.7675882  0.0044230

 Al 
  0.9962588  0.9817534  0.4870143

 Al 
  0.0154534  0.2450559  0.7609165

 Al 
  0.2564044  0.9935139  0.7475014

 Al 
  0.2476969  0.2410153  0.4929088

 Al 
  0.0152864  0.4923556  0.5078065

 Al 
  0.0108806  0.7430610  0.7489815

 Al 
  0.2533266  0.4875563  0.7432578

 Al 
  0.2524788  0.7435820  0.4922739

 Al 
  0.4653074  0.5144980  0.9898582

 Al 
  0.5072001  0.7556730  0.2470893

 Al 
  0.7372147  0.5115366  0.2417071

 Al 
  0.7651614  0.7590973  0.9989270

 Al 
  0.4923568  0.9987723  0.4958987

 Al 
  0.5096480  0.2498156  0.7549441

 Al 
  0.7657604  0.9942552  0.7416972

 Al 
  0.7449025  0.2495916  0.5082409

 Al 
  0.5068103  0.4906416  0.4976919

 Al 
  0.4856071  0.7553648  0.7264331

 Al 
  0.7361207  0.5059873  0.7854624

 Al 
  0.7549304  0.7252277  0.5206772

