32 
charge = 0 
 Al 
  0.0051037  0.0097557  0.0077162

 Al 
  0.0011423  0.2512475  0.2521781

 Al 
  0.2472662  0.9952700  0.2442565

 Al 
  0.2472489  0.2468343  0.0053364

 Al 
  0.5154547  0.0174707  0.9863621

 Al 
  0.4973516  0.2494703  0.2569836

 Al 
  0.7432231  0.0116145  0.2491028

 Al 
  0.7449359  0.2574501  0.0262425

 Al 
  0.0041656  0.5108014  0.9916663

 Al 
  0.9944792  0.7407356  0.2375291

 Al 
  0.2263019  0.5051495  0.2467601

 Al 
  0.2548376  0.7668766  0.0046718

 Al 
  0.9961264  0.9815653  0.4871009

 Al 
  0.0151045  0.2447923  0.7613039

 Al 
  0.2564056  0.9936464  0.7467799

 Al 
  0.2478021  0.2407975  0.4935300

 Al 
  0.0156180  0.4927380  0.5076741

 Al 
  0.0112024  0.7421873  0.7486350

 Al 
  0.2530692  0.4879412  0.7433741

 Al 
  0.2526843  0.7435659  0.4925783

 Al 
  0.4653445  0.5148941  0.9904200

 Al 
  0.5069786  0.7554651  0.2479407

 Al 
  0.7372717  0.5111158  0.2421774

 Al 
  0.7655834  0.7580070  0.9989926

 Al 
  0.4922875  0.9988355  0.4956388

 Al 
  0.5093213  0.2498131  0.7549045

 Al 
  0.7659138  0.9944384  0.7416267

 Al 
  0.7447639  0.2497673  0.5079093

 Al 
  0.5069155  0.4909646  0.4980088

 Al 
  0.4850849  0.7555084  0.7262710

 Al 
  0.7360700  0.5062249  0.7856430

 Al 
  0.7549403  0.7250569  0.5206871

