32 
charge = 0 
 Al 
  0.0011200  0.0129956  0.0119177

 Al 
  0.0091840  0.2508898  0.2574873

 Al 
  0.2386020  0.9965645  0.2403619

 Al 
  0.2433073  0.2472538  0.0077645

 Al 
  0.5195721  0.0078746  0.9919546

 Al 
  0.5012165  0.2410821  0.2564712

 Al 
  0.7453530  0.0116727  0.2551619

 Al 
  0.7496993  0.2462019  0.0247129

 Al 
  0.0086072  0.5139795  0.9894325

 Al 
  0.9882382  0.7459160  0.2487897

 Al 
  0.2276348  0.4990557  0.2464717

 Al 
  0.2470001  0.7744988  0.0012004

 Al 
  0.9983404  0.9847050  0.4865972

 Al 
  0.0178184  0.2477427  0.7559131

 Al 
  0.2554948  0.9931662  0.7551433

 Al 
  0.2466573  0.2431711  0.4868063

 Al 
  0.0098869  0.4882902  0.5092000

 Al 
  0.0076952  0.7529937  0.7525692

 Al 
  0.2558759  0.4840280  0.7415091

 Al 
  0.2497921  0.7438048  0.4884622

 Al 
  0.4666477  0.5097297  0.9855032

 Al 
  0.5088374  0.7580157  0.2376912

 Al 
  0.7370774  0.5153916  0.2368695

 Al 
  0.7591604  0.7713950  0.9982352

 Al 
  0.4938171  0.9980917  0.4986152

 Al 
  0.5127704  0.2498156  0.7551928

 Al 
  0.7635550  0.9927838  0.7428481

 Al 
  0.7477650  0.2477266  0.5117036

 Al 
  0.5047535  0.4876751  0.4942342

 Al 
  0.4923667  0.7529194  0.7299750

 Al 
  0.7372741  0.5027672  0.7820628

 Al 
  0.7548797  0.7278031  0.5191439

