32 
charge = 0 
 Al 
  0.0029380  0.0118150  0.0104054

 Al 
  0.0061433  0.2510420  0.2552423

 Al 
  0.2419175  0.9959470  0.2417009

 Al 
  0.2446414  0.2469667  0.0067905

 Al 
  0.5182219  0.0121219  0.9895030

 Al 
  0.4998861  0.2443233  0.2569204

 Al 
  0.7443295  0.0120192  0.2524714

 Al 
  0.7475657  0.2505223  0.0258688

 Al 
  0.0067856  0.5129820  0.9902158

 Al 
  0.9907220  0.7436006  0.2439397

 Al 
  0.2265185  0.5015309  0.2466289

 Al 
  0.2502203  0.7716858  0.0027313

 Al 
  0.9972687  0.9831766  0.4866195

 Al 
  0.0171019  0.2466128  0.7582917

 Al 
  0.2560826  0.9930523  0.7518403

 Al 
  0.2470608  0.2422887  0.4893322

 Al 
  0.0126912  0.4900438  0.5085813

 Al 
  0.0090317  0.7485050  0.7510309

 Al 
  0.2548215  0.4854314  0.7424125

 Al 
  0.2510680  0.7436884  0.4902443

 Al 
  0.4656700  0.5119338  0.9870105

 Al 
  0.5083177  0.7569539  0.2418717

 Al 
  0.7370229  0.5138793  0.2389783

 Al 
  0.7621058  0.7659014  0.9985446

 Al 
  0.4930288  0.9984048  0.4974197

 Al 
  0.5115019  0.2498639  0.7551049

 Al 
  0.7646589  0.9932949  0.7422652

 Al 
  0.7461809  0.2485459  0.5102074

 Al 
  0.5058611  0.4888595  0.4957873

 Al 
  0.4891503  0.7541916  0.7280172

 Al 
  0.7365873  0.5043240  0.7838696

 Al 
  0.7548983  0.7264962  0.5201525

