32 
charge = 0 
 Al 
  0.9995582  0.0137382  0.0127766

 Al 
  0.0110193  0.2507859  0.2591679

 Al 
  0.2364660  0.9970744  0.2397097

 Al 
  0.2426316  0.2475880  0.0083870

 Al 
  0.5201413  0.0045208  0.9938555

 Al 
  0.5019714  0.2388718  0.2558957

 Al 
  0.7462861  0.0110539  0.2574254

 Al 
  0.7514863  0.2433605  0.0233268

 Al 
  0.0099079  0.5144721  0.9889770

 Al 
  0.9864932  0.7477390  0.2525296

 Al 
  0.2290134  0.4973553  0.2463059

 Al 
  0.2446216  0.7761361  0.0000050

 Al 
  0.9993132  0.9861244  0.4868781

 Al 
  0.0179508  0.2484518  0.7540307

 Al 
  0.2549106  0.9936154  0.7573783

 Al 
  0.2465125  0.2436723  0.4852520

 Al 
  0.0073548  0.4871244  0.5096716

 Al 
  0.0067955  0.7563598  0.7536223

 Al 
  0.2565294  0.4831964  0.7406651

 Al 
  0.2487909  0.7439372  0.4871009

 Al 
  0.4677912  0.5080355  0.9849203

 Al 
  0.5089142  0.7588189  0.2346530

 Al 
  0.7372568  0.5162133  0.2353002

 Al 
  0.7567757  0.7753143  0.9979989

 Al 
  0.4945151  0.9978207  0.4995211

 Al 
  0.5135340  0.2496164  0.7552720

 Al 
  0.7625823  0.9926316  0.7433184

 Al 
  0.7492909  0.2471289  0.5127432

 Al 
  0.5037449  0.4869648  0.4930300

 Al 
  0.4949260  0.7518130  0.7318264

 Al 
  0.7380711  0.5015036  0.7804341

 Al 
  0.7548426  0.7289602  0.5180226

