32 
charge = 0 
 Al 
  0.0007363  0.0131986  0.0121628

 Al 
  0.0096988  0.2508613  0.2579204

 Al 
  0.2380204  0.9966932  0.2401626

 Al 
  0.2431055  0.2473293  0.0079353

 Al 
  0.5197602  0.0070244  0.9924397

 Al 
  0.5014294  0.2404968  0.2563450

 Al 
  0.7455782  0.0115452  0.2557188

 Al 
  0.7501423  0.2454371  0.0244023

 Al 
  0.0089488  0.5141255  0.9893050

 Al 
  0.9877803  0.7463789  0.2497426

 Al 
  0.2279417  0.4986028  0.2464333

 Al 
  0.2463863  0.7749629  0.0008960

 Al 
  0.9985743  0.9850441  0.4866405

 Al 
  0.0178865  0.2479382  0.7554378

 Al 
  0.2553549  0.9932491  0.7557398

 Al 
  0.2466041  0.2433159  0.4863757

 Al 
  0.0092743  0.4879758  0.5093201

 Al 
  0.0074563  0.7538575  0.7528489

 Al 
  0.2560566  0.4837954  0.7413074

 Al 
  0.2495384  0.7438345  0.4881132

 Al 
  0.4669051  0.5092990  0.9853064

 Al 
  0.5088869  0.7582211  0.2369029

 Al 
  0.7371108  0.5156304  0.2364673

 Al 
  0.7585602  0.7724222  0.9981758

 Al 
  0.4939879  0.9980261  0.4988454

 Al 
  0.5129833  0.2497822  0.7552114

 Al 
  0.7633186  0.9927219  0.7429669

 Al 
  0.7481276  0.2475719  0.5119784

 Al 
  0.5045084  0.4874771  0.4939298

 Al 
  0.4930115  0.7526471  0.7304180

 Al 
  0.7374511  0.5024504  0.7816680

 Al 
  0.7548735  0.7280840  0.5188877

