32 
charge = 0 
 Al 
  0.0018687  0.0125563  0.0113670

 Al 
  0.0080541  0.2509480  0.2566012

 Al 
  0.2398507  0.9963108  0.2408321

 Al 
  0.2437763  0.2471190  0.0073944

 Al 
  0.5191104  0.0095824  0.9909745

 Al 
  0.5007376  0.2423172  0.2566890

 Al 
  0.7449235  0.0118719  0.2540654

 Al 
  0.7488293  0.2478355  0.0252574

 Al 
  0.0078994  0.5136355  0.9897171

 Al 
  0.9891961  0.7449854  0.2468591

 Al 
  0.2271014  0.5000087  0.2465410

 Al 
  0.2482612  0.7734667  0.0018143

 Al 
  0.9978912  0.9840602  0.4865613

 Al 
  0.0176068  0.2473182  0.7568685

 Al 
  0.2557559  0.9930635  0.7538810

 Al 
  0.2467947  0.2428481  0.4877481

 Al 
  0.0110638  0.4889585  0.5089562

 Al 
  0.0082026  0.7512264  0.7519813

 Al 
  0.2554836  0.4845428  0.7418915

 Al 
  0.2503044  0.7437528  0.4891701

 Al 
  0.4661910  0.5106047  0.9860019

 Al 
  0.5086827  0.7575962  0.2393223

 Al 
  0.7370328  0.5148470  0.2376924

 Al 
  0.7603572  0.7692577  0.9983578

 Al 
  0.4934855  0.9982191  0.4981461

 Al 
  0.5123026  0.2498552  0.7551594

 Al 
  0.7640129  0.9929484  0.7426105

 Al 
  0.7470831  0.2480459  0.5111282

 Al 
  0.5052225  0.4881095  0.4948480

 Al 
  0.4910735  0.7534491  0.7291372

 Al 
  0.7369610  0.5033971  0.7828226

 Al 
  0.7548884  0.7272598  0.5196030

