32 
charge = 0 
 Al 
  0.0022326  0.0123199  0.0110638

 Al 
  0.0074439  0.2509789  0.2561507

 Al 
  0.2405166  0.9961871  0.2411007

 Al 
  0.2440436  0.2470620  0.0071977

 Al 
  0.5188394  0.0104351  0.9904831

 Al 
  0.5004715  0.2429669  0.2567794

 Al 
  0.7447181  0.0119412  0.2535258

 Al 
  0.7484011  0.2487018  0.0254901

 Al 
  0.0075330  0.5134362  0.9898743

 Al 
  0.9896936  0.7445201  0.2458863

 Al 
  0.2268774  0.5005062  0.2465732

 Al 
  0.2489072  0.7729011  0.0021212

 Al 
  0.9976759  0.9837533  0.4865675

 Al 
  0.0174632  0.2470917  0.7573462

 Al 
  0.2558747  0.9930399  0.7532177

 Al 
  0.2468764  0.2426699  0.4882543

 Al 
  0.0116269  0.4893099  0.5088325

 Al 
  0.0084699  0.7503267  0.7516732

 Al 
  0.2552720  0.4848238  0.7420722

 Al 
  0.2505606  0.7437293  0.4895277

 Al 
  0.4659943  0.5110465  0.9863039

 Al 
  0.5085788  0.7573833  0.2401601

 Al 
  0.7370217  0.5145438  0.2381132

 Al 
  0.7609487  0.7681550  0.9984196

 Al 
  0.4933271  0.9982810  0.4979060

 Al 
  0.5120477  0.2498639  0.7551421

 Al 
  0.7642344  0.9930511  0.7424929

 Al 
  0.7467650  0.2482092  0.5108287

 Al 
  0.5054440  0.4883471  0.4951599

 Al 
  0.4904275  0.7537053  0.7287436

 Al 
  0.7368237  0.5037102  0.7831852

 Al 
  0.7548921  0.7269974  0.5198060

