32 
charge = 0 
 Al 
  0.9953827  0.0148272  0.0135117

 Al 
  0.0127828  0.2506893  0.2627098

 Al 
  0.2333474  0.9981907  0.2397629

 Al 
  0.2423840  0.2486907  0.0090317

 Al 
  0.5191401  0.9970224  0.9980521

 Al 
  0.5029380  0.2346938  0.2536805

 Al 
  0.7490496  0.0083560  0.2636553

 Al 
  0.7561173  0.2386503  0.0182639

 Al 
  0.0123868  0.5148408  0.9884164

 Al 
  0.9830763  0.7519170  0.2609549

 Al 
  0.2341283  0.4945015  0.2457861

 Al 
  0.2394461  0.7776273  0.9973479

 Al 
  0.0022474  0.9905401  0.4891169

 Al 
  0.0167356  0.2493156  0.7496485

 Al 
  0.2533303  0.9962539  0.7612185

 Al 
  0.2471412  0.2439929  0.4834550

 Al 
  0.0001002  0.4853324  0.5107284

 Al 
  0.0050493  0.7638694  0.7555641

 Al 
  0.2574439  0.4822026  0.7380526

 Al 
  0.2464977  0.7445287  0.4841431

 Al 
  0.4719271  0.5040666  0.9857062

 Al 
  0.5076221  0.7605205  0.2284813

 Al 
  0.7382172  0.5166663  0.2316012

 Al 
  0.7513539  0.7826457  0.9974865

 Al 
  0.4963504  0.9969197  0.5017450

 Al 
  0.5144349  0.2481659  0.7555913

 Al 
  0.7597149  0.9934471  0.7443443

 Al 
  0.7538736  0.2458628  0.5146824

 Al 
  0.5009801  0.4860193  0.4899856

 Al 
  0.5010309  0.7489444  0.7373595

 Al 
  0.7412826  0.4983553  0.7757760

 Al 
  0.7544886  0.7323449  0.5141404

