32 
charge = 0 
 Al 
  0.9987513  0.0140426  0.0130835

 Al 
  0.0117036  0.2507450  0.2599537

 Al 
  0.2355898  0.9973219  0.2395315

 Al 
  0.2424236  0.2477823  0.0086283

 Al 
  0.5202341  0.0029046  0.9947614

 Al 
  0.5022561  0.2378942  0.2555418

 Al 
  0.7467873  0.0106430  0.2585936

 Al 
  0.7523947  0.2421551  0.0224952

 Al 
  0.0104933  0.5146342  0.9888025

 Al 
  0.9857074  0.7486189  0.2543191

 Al 
  0.2298475  0.4966239  0.2462106

 Al 
  0.2435077  0.7767313  0.9994320

 Al 
  0.9998379  0.9868992  0.4871355

 Al 
  0.0178791  0.2487315  0.7531149

 Al 
  0.2546000  0.9939644  0.7583424

 Al 
  0.2465150  0.2438431  0.4846493

 Al 
  0.0060121  0.4866356  0.5098980

 Al 
  0.0063970  0.7579526  0.7540864

 Al 
  0.2567905  0.4828758  0.7402035

 Al 
  0.2483070  0.7440226  0.4864561

 Al 
  0.4684706  0.5072187  0.9848300

 Al 
  0.5088300  0.7591976  0.2332558

 Al 
  0.7373917  0.5164868  0.2345478

 Al 
  0.7556148  0.7770717  0.9978862

 Al 
  0.4948753  0.9976721  0.4999641

 Al 
  0.5138285  0.2494456  0.7553215

 Al 
  0.7620650  0.9926514  0.7435436

 Al 
  0.7501238  0.2468504  0.5132048

 Al 
  0.5032164  0.4866875  0.4924348

 Al 
  0.4961784  0.7512475  0.7328276

 Al 
  0.7385637  0.5008762  0.7795753

 Al 
  0.7548079  0.7295728  0.5173692

