32 
charge = 0 
 Al 
  0.9932083  0.0149423  0.0131677

 Al 
  0.0120303  0.2508057  0.2641144

 Al 
  0.2329526  0.9986016  0.2406242

 Al 
  0.2429484  0.2493243  0.0087681

 Al 
  0.5170301  0.9939409  0.9998602

 Al 
  0.5031174  0.2331419  0.2521026

 Al 
  0.7506967  0.0063759  0.2672813

 Al 
  0.7585107  0.2374202  0.0148136

 Al 
  0.0132196  0.5146688  0.9884016

 Al 
  0.9817893  0.7538661  0.2647381

 Al 
  0.2376640  0.4937998  0.2455064

 Al 
  0.2371009  0.7769838  0.9962155

 Al 
  0.0041087  0.9933865  0.4913309

 Al 
  0.0153396  0.2492290  0.7476400

 Al 
  0.2525568  0.9985087  0.7622803

 Al 
  0.2481325  0.2436575  0.4837446

 Al 
  0.9958566  0.4850898  0.5111554

 Al 
  0.0043042  0.7673766  0.7562138

 Al 
  0.2575937  0.4822694  0.7364066

 Al 
  0.2454606  0.7450275  0.4829266

 Al 
  0.4748045  0.5020469  0.9872185

 Al 
  0.5060690  0.7611368  0.2261596

 Al 
  0.7389894  0.5159943  0.2296866

 Al 
  0.7491300  0.7849030  0.9973071

 Al 
  0.4973232  0.9962502  0.5029454

 Al 
  0.5143557  0.2468021  0.7558066

 Al 
  0.7579130  0.9945993  0.7447478

 Al 
  0.7565343  0.2453418  0.5153185

 Al 
  0.4995000  0.4858930  0.4882803

 Al 
  0.5040060  0.7474469  0.7407208

 Al 
  0.7437181  0.4966895  0.7729580

 Al 
  0.7540345  0.7344785  0.5115588

