32 
charge = 0 
 Al 
  0.9881305  0.0130736  0.0100354

 Al 
  0.0036025  0.2524578  0.2660351

 Al 
  0.2361022  0.9991176  0.2453950

 Al 
  0.2465583  0.2509925  0.0055059

 Al 
  0.5035469  0.9898458  0.0035394

 Al 
  0.5034417  0.2302213  0.2457242

 Al 
  0.7558871  0.9988355  0.2793018

 Al 
  0.7645834  0.2380909  0.0017437

 Al 
  0.0137864  0.5127506  0.9894535

 Al 
  0.9801062  0.7587545  0.2729370

 Al 
  0.2512178  0.4942800  0.2447911

 Al 
  0.2310678  0.7700572  0.9940040

 Al 
  0.0111851  0.0041198  0.5029590

 Al 
  0.0088981  0.2470719  0.7435300

 Al 
  0.2508366  0.0084055  0.7623212

 Al 
  0.2540023  0.2411477  0.4893186

 Al 
  0.9819229  0.4878781  0.5112482

 Al 
  0.0019603  0.7766955  0.7567088

 Al 
  0.2572274  0.4848238  0.7306470

 Al 
  0.2432590  0.7473578  0.4813066

 Al 
  0.4867544  0.4952737  0.9950275

 Al 
  0.4978627  0.7608905  0.2238157

 Al 
  0.7426291  0.5104512  0.2237686

 Al 
  0.7462291  0.7847706  0.9975719

 Al 
  0.5002030  0.9930994  0.5067979

 Al 
  0.5119252  0.2407604  0.7563128

 Al 
  0.7510594  0.0007809  0.7454148

 Al 
  0.7639968  0.2442701  0.5153383

 Al 
  0.4957514  0.4865205  0.4825368

 Al 
  0.5119041  0.7427726  0.7524281

 Al 
  0.7539565  0.4915635  0.7623793

 Al 
  0.7504072  0.7428692  0.5021026

