32 
charge = 0 
 Al 
  0.9899832  0.0143644  0.0117531

 Al 
  0.0084563  0.2514220  0.2656787

 Al 
  0.2339290  0.9989963  0.2429459

 Al 
  0.2446574  0.2503205  0.0074229

 Al 
  0.5109264  0.9905524  0.0022672

 Al 
  0.5032597  0.2312472  0.2488639

 Al 
  0.7535951  0.0024071  0.2738169

 Al 
  0.7621900  0.2369722  0.0080330

 Al 
  0.0139201  0.5139003  0.9887530

 Al 
  0.9803822  0.7567967  0.2699817

 Al 
  0.2446933  0.4936315  0.2450832

 Al 
  0.2335714  0.7740359  0.9947527

 Al 
  0.0077570  0.9989456  0.4967984

 Al 
  0.0121269  0.2483540  0.7448951

 Al 
  0.2514591  0.0034726  0.7628521

 Al 
  0.2508292  0.2424954  0.4859722

 Al 
  0.9882642  0.4858658  0.5115217

 Al 
  0.0030951  0.7727761  0.7567856

 Al 
  0.2575194  0.4832211  0.7333276

 Al 
  0.2440312  0.7461710  0.4815504

 Al 
  0.4807485  0.4985025  0.9910326

 Al 
  0.5021769  0.7614982  0.2238540

 Al 
  0.7407047  0.5135773  0.2264195

 Al 
  0.7467254  0.7861925  0.9972514

 Al 
  0.4989505  0.9947428  0.5050468

 Al 
  0.5134449  0.2437404  0.7561470

 Al 
  0.7543872  0.9975583  0.7452032

 Al 
  0.7609500  0.2446760  0.5157566

 Al 
  0.4971969  0.4860650  0.4851889

 Al 
  0.5086060  0.7449198  0.7469506

 Al 
  0.7488887  0.4938431  0.7675313

 Al 
  0.7525791  0.7387394  0.5065640

