32 
charge = 0 
 Al 
  0.9907183  0.0146045  0.0121900

 Al 
  0.0096047  0.2512091  0.2653866

 Al 
  0.2335058  0.9989283  0.2422826

 Al 
  0.2441550  0.2500854  0.0078635

 Al 
  0.5127580  0.9911700  0.0017400

 Al 
  0.5032263  0.2316519  0.2497426

 Al 
  0.7528637  0.0034615  0.2721388

 Al 
  0.7613249  0.2369041  0.0098374

 Al 
  0.0138260  0.5141515  0.9886194

 Al 
  0.9806408  0.7561037  0.2688085

 Al 
  0.2428159  0.4935684  0.2451822

 Al 
  0.2344129  0.7749777  0.9950671

 Al 
  0.0067818  0.9974642  0.4952168

 Al 
  0.0130192  0.2486511  0.7454953

 Al 
  0.2517066  0.0021026  0.7628372

 Al 
  0.2500334  0.2428457  0.4852186

 Al 
  0.9902084  0.4855193  0.5114833

 Al 
  0.0034058  0.7714754  0.7567039

 Al 
  0.2575702  0.4828833  0.7341295

 Al 
  0.2443481  0.7458492  0.4818041

 Al 
  0.4791223  0.4994221  0.9899485

 Al 
  0.5032993  0.7615031  0.2242278

 Al 
  0.7402208  0.5143285  0.2272437

 Al 
  0.7471573  0.7861653  0.9972291

 Al 
  0.4985446  0.9951698  0.5045109

 Al 
  0.5137654  0.2445844  0.7560702

 Al 
  0.7553289  0.9967056  0.7451129

 Al 
  0.7598782  0.2448220  0.5157282

 Al 
  0.4977377  0.4859821  0.4859883

 Al 
  0.5075021  0.7455609  0.7453282

 Al 
  0.7474741  0.4945597  0.7689805

 Al 
  0.7530444  0.7375872  0.5078820

