32 
charge = 0 
 Al 
  0.9885266  0.0135043  0.0105329

 Al 
  0.0050715  0.2521199  0.2660438

 Al 
  0.2353980  0.9990953  0.2446995

 Al 
  0.2460150  0.2508279  0.0060950

 Al 
  0.5057411  0.9898173  0.0032758

 Al 
  0.5033748  0.2304527  0.2466041

 Al 
  0.7552968  0.9997983  0.2778476

 Al 
  0.7640216  0.2376454  0.0034850

 Al 
  0.0138966  0.5131169  0.9892184

 Al 
  0.9800790  0.7582867  0.2723009

 Al 
  0.2494196  0.4940411  0.2448641

 Al 
  0.2316952  0.7712626  0.9941587

 Al 
  0.0102322  0.0026855  0.5011522

 Al 
  0.0098064  0.2474593  0.7437862

 Al 
  0.2509702  0.0070219  0.7625538

 Al 
  0.2530605  0.2415326  0.4882852

 Al 
  0.9836048  0.4871838  0.5113980

 Al 
  0.0022907  0.7757029  0.7567893

 Al 
  0.2573251  0.4843114  0.7313697

 Al 
  0.2434199  0.7470199  0.4812658

 Al 
  0.4850292  0.4961809  0.9938988

 Al 
  0.4991176  0.7611566  0.2236226

 Al 
  0.7420487  0.5113955  0.2244654

 Al 
  0.7462118  0.7853968  0.9974395

 Al 
  0.4998824  0.9935808  0.5063314

 Al 
  0.5124115  0.2415809  0.7562868

 Al 
  0.7519888  0.9998564  0.7453678

 Al 
  0.7632753  0.2443703  0.5155425

 Al 
  0.4960757  0.4863682  0.4832459

 Al 
  0.5110737  0.7433605  0.7509393

 Al 
  0.7525370  0.4921576  0.7638273

 Al 
  0.7511051  0.7417071  0.5033092

