32 
charge = 0 
 Al 
  0.9893273  0.0140624  0.0112791

 Al 
  0.0071729  0.2516744  0.2658891

 Al 
  0.2344550  0.9990458  0.2436402

 Al 
  0.2451908  0.2505383  0.0069254

 Al 
  0.5089340  0.9901181  0.0027276

 Al 
  0.5032981  0.2308920  0.2479605

 Al 
  0.7543055  0.0013452  0.2754752

 Al 
  0.7629882  0.2371591  0.0062014

 Al 
  0.0139548  0.5136132  0.9889176

 Al 
  0.9801990  0.7574402  0.2710249

 Al 
  0.2465992  0.4937565  0.2449891

 Al 
  0.2327744  0.7729852  0.9944805

 Al 
  0.0087508  0.0004505  0.4984889

 Al 
  0.0112024  0.2480162  0.7443765

 Al 
  0.2512388  0.0048871  0.7627877

 Al 
  0.2516893  0.2421180  0.4868360

 Al 
  0.9863460  0.4863163  0.5115118

 Al 
  0.0027771  0.7740124  0.7568227

 Al 
  0.2574526  0.4836184  0.7325269

 Al 
  0.2437528  0.7465064  0.4813722

 Al 
  0.4824378  0.4975707  0.9921675

 Al 
  0.5009839  0.7614190  0.2236374

 Al 
  0.7412207  0.5127469  0.2256114

 Al 
  0.7464210  0.7860180  0.9973021

 Al 
  0.4993416  0.9942911  0.5055740

 Al 
  0.5130674  0.2428729  0.7562138

 Al 
  0.7534256  0.9984605  0.7452787

 Al 
  0.7619549  0.2445436  0.5157208

 Al 
  0.4967019  0.4861715  0.4843931

 Al 
  0.5096517  0.7442849  0.7485743

 Al 
  0.7503453  0.4931427  0.7660512

 Al 
  0.7520407  0.7399225  0.5052398

