32 
charge = 0 
 Al 
  0.9876355  0.0118583  0.0088857

 Al 
  0.9999109  0.2534045  0.2656416

 Al 
  0.2379919  0.9991646  0.2470150

 Al 
  0.2478182  0.2513242  0.0039936

 Al 
  0.4981338  0.9905982  0.0038451

 Al 
  0.5036867  0.2298265  0.2437194

 Al 
  0.7570628  0.9968009  0.2823338

 Al 
  0.7655128  0.2395463  0.9978046

 Al 
  0.0132927  0.5117358  0.9901391

 Al 
  0.9805443  0.7595503  0.2737624

 Al 
  0.2552250  0.4949693  0.2446451

 Al 
  0.2298562  0.7670091  0.9938159

 Al 
  0.0133409  0.0073561  0.5073524

 Al 
  0.0068177  0.2461438  0.7433927

 Al 
  0.2506658  0.0115353  0.7615427

 Al 
  0.2563536  0.2402864  0.4919719

 Al 
  0.9783983  0.4899485  0.5105997

 Al 
  0.0011076  0.7786360  0.7563128

 Al 
  0.2569551  0.4862247  0.7290889

 Al 
  0.2430796  0.7481387  0.4818029

 Al 
  0.4909126  0.4931291  0.9975954

 Al 
  0.4948282  0.7599599  0.2249381

 Al 
  0.7441711  0.5080516  0.2223355

 Al 
  0.7467365  0.7826197  0.9980484

 Al 
  0.5008193  0.9919113  0.5077979

 Al 
  0.5106022  0.2389845  0.7562843

 Al 
  0.7489208  0.0029231  0.7455076

 Al 
  0.7651478  0.2440647  0.5145438

 Al 
  0.4953035  0.4869474  0.4810443

 Al 
  0.5135278  0.7414348  0.7557052

 Al 
  0.7571803  0.4903693  0.7590107

 Al 
  0.7484605  0.7455473  0.4995211

