32 
charge = 0 
 Al 
  0.9878484  0.0126083  0.0095540

 Al 
  0.0021187  0.2528204  0.2659398

 Al 
  0.2368435  0.9991362  0.2460670

 Al 
  0.2470831  0.2511373  0.0049032

 Al 
  0.5013527  0.9900389  0.0037201

 Al 
  0.5035258  0.2300332  0.2448839

 Al 
  0.7564106  0.9979506  0.2806247

 Al 
  0.7650364  0.2386206  0.0000891

 Al 
  0.0136256  0.5123608  0.9897109

 Al 
  0.9802188  0.7591382  0.2733974

 Al 
  0.2529132  0.4945436  0.2447267

 Al 
  0.2305208  0.7688357  0.9938963

 Al 
  0.0120910  0.0054812  0.5047498

 Al 
  0.0080281  0.2466883  0.7433889

 Al 
  0.2507401  0.0097223  0.7620390

 Al 
  0.2549490  0.2407814  0.4903780

 Al 
  0.9803896  0.4886528  0.5110366

 Al 
  0.0016237  0.7775655  0.7565826

 Al 
  0.2571222  0.4853671  0.7299787

 Al 
  0.2431501  0.7476820  0.4814378

 Al 
  0.4884511  0.4943938  0.9961066

 Al 
  0.4966227  0.7605601  0.2241622

 Al 
  0.7432305  0.5094921  0.2231399

 Al 
  0.7463591  0.7839996  0.9977377

 Al 
  0.5004826  0.9926179  0.5072286

 Al 
  0.5114116  0.2399968  0.7563190

 Al 
  0.7501683  0.0016732  0.7454557

 Al 
  0.7645723  0.2441810  0.5150673

 Al 
  0.4955089  0.4866838  0.4818883

 Al 
  0.5126306  0.7422145  0.7538204

 Al 
  0.7553104  0.4910339  0.7609821

 Al 
  0.7496597  0.7439854  0.5009876

