32 
charge = 0 
 Al 
  0.9876182  0.0115984  0.0086803

 Al 
  0.9991882  0.2536087  0.2655017

 Al 
  0.2383793  0.9991770  0.2473133

 Al 
  0.2480459  0.2513799  0.0036916

 Al 
  0.4970905  0.9908470  0.0038513

 Al 
  0.5037511  0.2297758  0.2433592

 Al 
  0.7572447  0.9964680  0.2828263

 Al 
  0.7656193  0.2398842  0.9970992

 Al 
  0.0131602  0.5115180  0.9902926

 Al 
  0.9806928  0.7596443  0.2738008

 Al 
  0.2559292  0.4951153  0.2446216

 Al 
  0.2296767  0.7664076  0.9938097

 Al 
  0.0137270  0.0079328  0.5081890

 Al 
  0.0064428  0.2459754  0.7434496

 Al 
  0.2506584  0.0120910  0.7613621

 Al 
  0.2568165  0.2401379  0.4924979

 Al 
  0.9778192  0.4904126  0.5104228

 Al 
  0.0009306  0.7789317  0.7562027

 Al 
  0.2568982  0.4865205  0.7288241

 Al 
  0.2430783  0.7482810  0.4819687

 Al 
  0.4917071  0.4927219  0.9980521

 Al 
  0.4942515  0.7597359  0.2252599

 Al 
  0.7444953  0.5075739  0.2221066

 Al 
  0.7469036  0.7821098  0.9981684

 Al 
  0.5009084  0.9916811  0.5079674

 Al 
  0.5103237  0.2386874  0.7562621

 Al 
  0.7485298  0.0033092  0.7455237

 Al 
  0.7652616  0.2440300  0.5143396

 Al 
  0.4952775  0.4870378  0.4807992

 Al 
  0.5137765  0.7411886  0.7562782

 Al 
  0.7577558  0.4901849  0.7583894

 Al 
  0.7480447  0.7460324  0.4990892

