32 
charge = 0 
 Al 
  0.9878867  0.0102346  0.0078090

 Al 
  0.9957032  0.2546755  0.2645253

 Al 
  0.2403037  0.9992736  0.2486882

 Al 
  0.2490557  0.2516422  0.0022152

 Al 
  0.4921341  0.9924447  0.0036496

 Al 
  0.5041570  0.2296310  0.2417801

 Al 
  0.7579055  0.9951896  0.2847124

 Al 
  0.7657925  0.2417665  0.9939706

 Al 
  0.0123434  0.5103485  0.9911316

 Al 
  0.9817249  0.7598225  0.2734258

 Al 
  0.2589674  0.4958480  0.2445151

 Al 
  0.2290642  0.7634610  0.9939124

 Al 
  0.0154176  0.0104685  0.5121021

 Al 
  0.0047720  0.2452651  0.7441278

 Al 
  0.2507388  0.0144869  0.7603720

 Al 
  0.2590775  0.2395426  0.4950572

 Al 
  0.9755396  0.4929756  0.5092731

 Al 
  0.0000012  0.7799701  0.7555010

 Al 
  0.2565999  0.4880699  0.7277325

 Al 
  0.2432342  0.7489246  0.4831135

 Al 
  0.4955225  0.4907752  0.0000186

 Al 
  0.4915388  0.7584600  0.2272709

 Al 
  0.7462093  0.5052040  0.2212539

 Al 
  0.7479865  0.7792473  0.9988973

 Al 
  0.5011819  0.9905735  0.5086691

 Al 
  0.5088857  0.2375241  0.7560529

 Al 
  0.7467514  0.0050022  0.7456277

 Al 
  0.7652616  0.2438864  0.5130885

 Al 
  0.4954656  0.4875192  0.4798475

 Al 
  0.5146800  0.7400450  0.7587607

 Al 
  0.7602569  0.4895315  0.7555319

 Al 
  0.7458406  0.7481894  0.4973652

