32 
charge = 0 
 Al 
  0.9883063  0.0093745  0.0074155

 Al 
  0.9937107  0.2553512  0.2637122

 Al 
  0.2414423  0.9993800  0.2494394

 Al 
  0.2495607  0.2518081  0.0013514

 Al 
  0.4893532  0.9936352  0.0033674

 Al 
  0.5044812  0.2296198  0.2410004

 Al 
  0.7581246  0.9947280  0.2853930

 Al 
  0.7656317  0.2430350  0.9923766

 Al 
  0.0117333  0.5095676  0.9917021

 Al 
  0.9825813  0.7597112  0.2727823

 Al 
  0.2604289  0.4962786  0.2444545

 Al 
  0.2289156  0.7617172  0.9940708

 Al 
  0.0162579  0.0117370  0.5142307

 Al 
  0.0039194  0.2449693  0.7448418

 Al 
  0.2508712  0.0156267  0.7597211

 Al 
  0.2604141  0.2393075  0.4965299

 Al 
  0.9746337  0.4947193  0.5083560

 Al 
  0.9993886  0.7802646  0.7549577

 Al 
  0.2564069  0.4890760  0.7272548

 Al 
  0.2434434  0.7492637  0.4840627

 Al 
  0.4977315  0.4896490  0.0009517

 Al 
  0.4900339  0.7575813  0.2287795

 Al 
  0.7473331  0.5037808  0.2209792

 Al 
  0.7487983  0.7772883  0.9994456

 Al 
  0.5012066  0.9899399  0.5089835

 Al 
  0.5079773  0.2370873  0.7558450

 Al 
  0.7458010  0.0058240  0.7457217

 Al 
  0.7648124  0.2438270  0.5121516

 Al 
  0.4958418  0.4878360  0.4794874

 Al 
  0.5149745  0.7393990  0.7599896

 Al 
  0.7614697  0.4893532  0.7539887

 Al 
  0.7444136  0.7492674  0.4966561

