32 
charge = 0 
 Al 
  0.9891404  0.0081766  0.0070492

 Al 
  0.9911440  0.2562918  0.2623385

 Al 
  0.2429447  0.9996027  0.2504010

 Al 
  0.2501238  0.2520729  0.0002141

 Al 
  0.4858175  0.9954359  0.0028241

 Al 
  0.5050307  0.2296866  0.2401465

 Al 
  0.7582397  0.9944557  0.2857742

 Al 
  0.7651218  0.2448901  0.9905116

 Al 
  0.0107717  0.5084018  0.9925585

 Al 
  0.9840194  0.7593238  0.2714643

 Al 
  0.2620056  0.4968343  0.2443629

 Al 
  0.2289652  0.7593485  0.9943864

 Al 
  0.0171885  0.0131838  0.5168247

 Al 
  0.0029182  0.2447552  0.7461574

 Al 
  0.2511423  0.0168160  0.7587892

 Al 
  0.2622197  0.2391404  0.4984295

 Al 
  0.9739295  0.4973405  0.5068177

 Al 
  0.9984728  0.7802819  0.7540778

 Al 
  0.2561235  0.4905574  0.7268143

 Al 
  0.2438493  0.7496708  0.4856690

 Al 
  0.5006757  0.4881541  0.0019269

 Al 
  0.4881404  0.7562695  0.2311408

 Al 
  0.7489790  0.5018365  0.2209024

 Al 
  0.7500371  0.7743565  0.0003304

 Al 
  0.5010668  0.9891218  0.5092953

 Al 
  0.5066940  0.2368162  0.7554577

 Al 
  0.7446315  0.0067064  0.7459210

 Al 
  0.7636874  0.2437874  0.5106591

 Al 
  0.4966759  0.4883137  0.4792387

 Al 
  0.5151082  0.7385414  0.7613955

 Al 
  0.7627716  0.4893693  0.7520704

 Al 
  0.7423642  0.7504591  0.4960522

