32 
charge = 0 
 Al 
  0.9884857  0.0090800  0.0073078

 Al 
  0.9930610  0.2555826  0.2634016

 Al 
  0.2418185  0.9994258  0.2496819

 Al 
  0.2497129  0.2518687  0.0010655

 Al 
  0.4884535  0.9940634  0.0032486

 Al 
  0.5046062  0.2296285  0.2407678

 Al 
  0.7581716  0.9946240  0.2855453

 Al 
  0.7655351  0.2434805  0.9918853

 Al 
  0.0115093  0.5092904  0.9919051

 Al 
  0.9829080  0.7596394  0.2725014

 Al 
  0.2608621  0.4964197  0.2444334

 Al 
  0.2289008  0.7611319  0.9941389

 Al 
  0.0165103  0.0121232  0.5149052

 Al 
  0.0036558  0.2448951  0.7451314

 Al 
  0.2509294  0.0159584  0.7594958

 Al 
  0.2608621  0.2392493  0.4970100

 Al 
  0.9744047  0.4953406  0.5080070

 Al 
  0.9991721  0.7803091  0.7547560

 Al 
  0.2563400  0.4894300  0.7271237

 Al 
  0.2435313  0.7493688  0.4844253

 Al 
  0.4984642  0.4892765  0.0012239

 Al 
  0.4895500  0.7572682  0.2293315

 Al 
  0.7477266  0.5033006  0.2209284

 Al 
  0.7490916  0.7765915  0.9996498

 Al 
  0.5011905  0.9897332  0.5090726

 Al 
  0.5076655  0.2369858  0.7557609

 Al 
  0.7455002  0.0060665  0.7457626

 Al 
  0.7645884  0.2438122  0.5118063

 Al 
  0.4960138  0.4879486  0.4794008

 Al 
  0.5150351  0.7391862  0.7603633

 Al 
  0.7618286  0.4893297  0.7534961

 Al 
  0.7439186  0.7495916  0.4964692

