32 
charge = 0 
 Al 
  0.9896713  0.0075578  0.0069341

 Al 
  0.9898928  0.2567757  0.2615143

 Al 
  0.2436934  0.9997599  0.2508787

 Al 
  0.2503614  0.2522350  0.9996485

 Al 
  0.4841047  0.9964160  0.0024838

 Al 
  0.5053611  0.2297584  0.2397975

 Al 
  0.7582286  0.9944644  0.2857334

 Al 
  0.7647406  0.2458913  0.9896713

 Al 
  0.0102198  0.5077546  0.9930338

 Al 
  0.9848770  0.7590305  0.2706104

 Al 
  0.2626454  0.4971004  0.2443109

 Al 
  0.2291000  0.7581172  0.9945869

 Al 
  0.0175746  0.0138161  0.5180152

 Al 
  0.0024652  0.2447354  0.7469766

 Al 
  0.2513180  0.0172714  0.7582929

 Al 
  0.2631479  0.2391231  0.4993552

 Al 
  0.9737897  0.4988008  0.5058945

 Al 
  0.9979605  0.7801210  0.7535642

 Al 
  0.2559638  0.4913791  0.7266794

 Al 
  0.2441080  0.7498602  0.4866368

 Al 
  0.5021793  0.4873979  0.0023019

 Al 
  0.4872345  0.7555492  0.2324798

 Al 
  0.7498750  0.5008316  0.2209977

 Al 
  0.7507178  0.7727303  0.0008453

 Al 
  0.5009170  0.9887233  0.5094092

 Al 
  0.5060121  0.2368187  0.7552101

 Al 
  0.7440770  0.0070603  0.7460621

 Al 
  0.7628905  0.2437911  0.5097990

 Al 
  0.4972514  0.4885847  0.4792139

 Al 
  0.5150636  0.7381008  0.7620204

 Al 
  0.7632927  0.4894943  0.7511522

 Al 
  0.7412653  0.7509492  0.4958876

