32 
charge = 0 
 Al 
  0.9893966  0.0078684  0.0069860

 Al 
  0.9905153  0.2565331  0.2619388

 Al 
  0.2433184  0.9996770  0.2506398

 Al 
  0.2502463  0.2521509  0.9999307

 Al 
  0.4849562  0.9959198  0.0026595

 Al 
  0.5051903  0.2297188  0.2399658

 Al 
  0.7582397  0.9944483  0.2857742

 Al 
  0.7649423  0.2453851  0.9900846

 Al 
  0.0105020  0.5080838  0.9927924

 Al 
  0.9844364  0.7591852  0.2710534

 Al 
  0.2623373  0.4969680  0.2443382

 Al 
  0.2290221  0.7587384  0.9944829

 Al 
  0.0173890  0.0135068  0.5174286

 Al 
  0.0026880  0.2447366  0.7465534

 Al 
  0.2512264  0.0170561  0.7585441

 Al 
  0.2626813  0.2391268  0.4988936

 Al 
  0.9738416  0.4980570  0.5063697

 Al 
  0.9982216  0.7802163  0.7538278

 Al 
  0.2560455  0.4909608  0.7267400

 Al 
  0.2439743  0.7497661  0.4861381

 Al 
  0.5014244  0.4877766  0.0021237

 Al 
  0.4876850  0.7559155  0.2317967

 Al 
  0.7494208  0.5013366  0.2209383

 Al 
  0.7503725  0.7735582  0.0005817

 Al 
  0.5009987  0.9889226  0.5093560

 Al 
  0.5063561  0.2368063  0.7553388

 Al 
  0.7443530  0.0068895  0.7459866

 Al 
  0.7633087  0.2437874  0.5102384

 Al 
  0.4969494  0.4884461  0.4792189

 Al 
  0.5150945  0.7383224  0.7617135

 Al 
  0.7630427  0.4894226  0.7516088

 Al 
  0.7418209  0.7507128  0.4959594

