32 
charge = 0 
 Al 
  0.9913185  0.0059663  0.0068610

 Al 
  0.9868670  0.2580046  0.2590033

 Al 
  0.2455596  0.0003280  0.2521125

 Al 
  0.2508242  0.2527672  0.9982389

 Al 
  0.4799639  0.9990496  0.0014368

 Al 
  0.5063660  0.2300629  0.2391726

 Al 
  0.7580244  0.9948901  0.2849017

 Al 
  0.7634053  0.2485879  0.9878001

 Al 
  0.0086221  0.5059242  0.9943654

 Al 
  0.9874573  0.7580132  0.2679100

 Al 
  0.2638112  0.4977068  0.2441476

 Al 
  0.2297980  0.7548253  0.9952007

 Al 
  0.0182726  0.0151750  0.5206463

 Al 
  0.0014405  0.2449866  0.7495124

 Al 
  0.2518823  0.0179818  0.7569712

 Al 
  0.2655722  0.2392963  0.5015890

 Al 
  0.9740755  0.5029479  0.5030914

 Al 
  0.9964816  0.7791644  0.7520445

 Al 
  0.2554985  0.4937330  0.7266175

 Al 
  0.2449210  0.7502896  0.4896008

 Al 
  0.5060950  0.4854735  0.0029083

 Al 
  0.4850936  0.7535481  0.2363039

 Al 
  0.7523427  0.4981993  0.2216908

 Al 
  0.7525717  0.7681117  0.0023687

 Al 
  0.5002797  0.9877605  0.5095725

 Al 
  0.5041817  0.2372543  0.7544070

 Al 
  0.7427565  0.0076976  0.7465843

 Al 
  0.7601950  0.2438963  0.5072954

 Al 
  0.4991943  0.4893929  0.4794515

 Al 
  0.5146144  0.7369412  0.7634053

 Al 
  0.7642122  0.4901861  0.7489307

 Al 
  0.7382976  0.7518390  0.4958579

