32 
charge = 0 
 Al 
  0.9906069  0.0066073  0.0068536

 Al 
  0.9880550  0.2575132  0.2600861

 Al 
  0.2448146  0.0000681  0.2516101

 Al 
  0.2506621  0.2525308  0.9988008

 Al 
  0.4815937  0.9979716  0.0018885

 Al 
  0.5059329  0.2299168  0.2393780

 Al 
  0.7581345  0.9946525  0.2853633

 Al 
  0.7640055  0.2474791  0.9885117

 Al 
  0.0092990  0.5066927  0.9938085

 Al 
  0.9863497  0.7584674  0.2690857

 Al 
  0.2634201  0.4974766  0.2442181

 Al 
  0.2294540  0.7561829  0.9949384

 Al 
  0.0180437  0.0146688  0.5196599

 Al 
  0.0018328  0.2448307  0.7484147

 Al 
  0.2516348  0.0177739  0.7575132

 Al 
  0.2645847  0.2391874  0.5007128

 Al 
  0.9738503  0.5012029  0.5042993

 Al 
  0.9971091  0.7796483  0.7526929

 Al 
  0.2556977  0.4927355  0.7265927

 Al 
  0.2445671  0.7501250  0.4883174

 Al 
  0.5044998  0.4862470  0.0027239

 Al 
  0.4859264  0.7543822  0.2346938

 Al 
  0.7513192  0.4992711  0.2213306

 Al 
  0.7518068  0.7700572  0.0017190

 Al 
  0.5005817  0.9881380  0.5095280

 Al 
  0.5049354  0.2370031  0.7547609

 Al 
  0.7432738  0.0074848  0.7463430

 Al 
  0.7613942  0.2438357  0.5083560

 Al 
  0.4983268  0.4890451  0.4793042

 Al 
  0.5148532  0.7374165  0.7628781

 Al 
  0.7639102  0.4898408  0.7498082

 Al 
  0.7395203  0.7515432  0.4958071

