32 
charge = 0 
 Al 
  0.9960014  0.0027264  0.0077038

 Al 
  0.9817472  0.2601369  0.2517165

 Al 
  0.2492797  0.0025717  0.2550084

 Al 
  0.2510433  0.2547436  0.9955089

 Al 
  0.4724939  0.0046223  0.9985224

 Al 
  0.5091852  0.2314972  0.2392679

 Al 
  0.7569316  0.9973108  0.2793550

 Al 
  0.7588251  0.2545097  0.9849092

 Al 
  0.0044193  0.5011918  0.9975694

 Al 
  0.9947960  0.7547708  0.2599314

 Al 
  0.2640674  0.4983169  0.2437491

 Al 
  0.2332929  0.7467724  0.9967427

 Al 
  0.0179372  0.0171254  0.5238379

 Al 
  0.9997933  0.2471932  0.7567497

 Al 
  0.2535295  0.0170313  0.7540295

 Al 
  0.2708975  0.2410277  0.5054279

 Al 
  0.9778885  0.5136850  0.4950176

 Al 
  0.9923704  0.7740793  0.7478974

 Al 
  0.2540221  0.5001782  0.7280630

 Al 
  0.2473071  0.7509467  0.4985335

 Al 
  0.5148384  0.4816866  0.0025123

 Al 
  0.4816754  0.7486164  0.2461400

 Al 
  0.7580763  0.4925177  0.2258007

 Al 
  0.7567125  0.7557955  0.0065418

 Al 
  0.4976523  0.9861220  0.5093127

 Al 
  0.4999418  0.2404534  0.7517697

 Al 
  0.7403767  0.0078152  0.7487142

 Al 
  0.7515420  0.2448183  0.5006955

 Al 
  0.5056396  0.4917776  0.4814601

 Al 
  0.5119190  0.7343188  0.7656799

 Al 
  0.7642728  0.4936810  0.7445040

 Al 
  0.7315244  0.7519603  0.4973331

