32 
charge = 0 
 Al 
  0.9942342  0.0037944  0.0072657

 Al 
  0.9832063  0.2595478  0.2545060

 Al 
  0.2480570  0.0016125  0.2539590

 Al 
  0.2511064  0.2538958  0.9963838

 Al 
  0.4747834  0.0027981  0.9996003

 Al 
  0.5081308  0.2308549  0.2389869

 Al 
  0.7573944  0.9962997  0.2818994

 Al 
  0.7606752  0.2525296  0.9857371

 Al 
  0.0059601  0.5029355  0.9964457

 Al 
  0.9919942  0.7560245  0.2629944

 Al 
  0.2643446  0.4982637  0.2438753

 Al 
  0.2317361  0.7497203  0.9962106

 Al 
  0.0184063  0.0165759  0.5231857

 Al 
  0.0002710  0.2461487  0.7540295

 Al 
  0.2529219  0.0177986  0.7550394

 Al 
  0.2690832  0.2401626  0.5043018

 Al 
  0.9760433  0.5097409  0.4980991

 Al 
  0.9939372  0.7763539  0.7494480

 Al 
  0.2546310  0.4977365  0.7272833

 Al 
  0.2463999  0.7507673  0.4950324

 Al 
  0.5118063  0.4828857  0.0029169

 Al 
  0.4826135  0.7503948  0.2425375

 Al 
  0.7561012  0.4944260  0.2239048

 Al 
  0.7553116  0.7604215  0.0049750

 Al 
  0.4987488  0.9865947  0.5095045

 Al 
  0.5014281  0.2389597  0.7528328

 Al 
  0.7411168  0.0079749  0.7477971

 Al 
  0.7549292  0.2443629  0.5031261

 Al 
  0.5030766  0.4908482  0.4805195

 Al 
  0.5131380  0.7352272  0.7649819

 Al 
  0.7645525  0.4921378  0.7460027

 Al 
  0.7338622  0.7522029  0.4966177

