32 
charge = 0 
 Al 
  0.9976647  0.0018588  0.0082112

 Al 
  0.9809415  0.2603844  0.2490632

 Al 
  0.2502537  0.0036248  0.2559774

 Al 
  0.2508267  0.2557002  0.9948505

 Al 
  0.4709061  0.0060034  0.9975608

 Al 
  0.5101369  0.2322397  0.2397901

 Al 
  0.7564514  0.9982711  0.2764380

 Al 
  0.7569328  0.2560282  0.9843560

 Al 
  0.0030395  0.4995904  0.9985050

 Al 
  0.9975026  0.7535914  0.2569848

 Al 
  0.2634399  0.4981251  0.2436921

 Al 
  0.2350589  0.7440325  0.9971610

 Al 
  0.0170846  0.0175189  0.5238701

 Al 
  0.9994901  0.2484023  0.7592347

 Al 
  0.2540357  0.0158420  0.7531731

 Al 
  0.2723652  0.2421415  0.5061346

 Al 
  0.9800851  0.5172615  0.4920883

 Al 
  0.9908606  0.7715274  0.7464581

 Al 
  0.2533563  0.5024949  0.7290765

 Al 
  0.2481523  0.7510569  0.5020160

 Al 
  0.5174014  0.4808475  0.0018922

 Al 
  0.4811878  0.7470261  0.2494171

 Al 
  0.7596691  0.4910091  0.2280333

 Al 
  0.7578301  0.7514121  0.0080046

 Al 
  0.4965398  0.9858410  0.5090354

 Al 
  0.4986709  0.2421984  0.7506844

 Al 
  0.7398272  0.0074650  0.7497240

 Al 
  0.7482711  0.2453851  0.4984889

 Al 
  0.5081592  0.4926910  0.4825516

 Al 
  0.5105453  0.7335652  0.7662220

 Al 
  0.7637308  0.4953827  0.7431885

 Al 
  0.7295827  0.7514838  0.4981177

