32 
charge = 0 
 Al 
  0.9968516  0.0022660  0.0079526

 Al 
  0.9812571  0.2603064  0.2503601

 Al 
  0.2498008  0.0030902  0.2555059

 Al 
  0.2509529  0.2552114  0.9951500

 Al 
  0.4716078  0.0053735  0.9980211

 Al 
  0.5096802  0.2318573  0.2395030

 Al 
  0.7566903  0.9978058  0.2779305

 Al 
  0.7578758  0.2553351  0.9845998

 Al 
  0.0037028  0.5003663  0.9980657

 Al 
  0.9961697  0.7541644  0.2584328

 Al 
  0.2637914  0.4982526  0.2437095

 Al 
  0.2341555  0.7453678  0.9969680

 Al 
  0.0175561  0.0173395  0.5239283

 Al 
  0.9996188  0.2477835  0.7580343

 Al 
  0.2538006  0.0164843  0.7535803

 Al 
  0.2716821  0.2415549  0.5058351

 Al 
  0.9789528  0.5155351  0.4935201

 Al 
  0.9916019  0.7728268  0.7471573

 Al 
  0.2536954  0.5013626  0.7285444

 Al 
  0.2477414  0.7510099  0.5002896

 Al 
  0.5161898  0.4812163  0.0022227

 Al 
  0.4813747  0.7477910  0.2478318

 Al 
  0.7589303  0.4917059  0.2268811

 Al 
  0.7573128  0.7535580  0.0072930

 Al 
  0.4970917  0.9859561  0.5091827

 Al 
  0.4992736  0.2413012  0.7512252

 Al 
  0.7400772  0.0076605  0.7492104

 Al 
  0.7498762  0.2450906  0.4995545

 Al 
  0.5069180  0.4922405  0.4819910

 Al 
  0.5112457  0.7339191  0.7659695

 Al 
  0.7640290  0.4945201  0.7438221

 Al 
  0.7304948  0.7517450  0.4977229

