32 
charge = 0 
 Al 
  0.9955646  0.0029763  0.0075850

 Al 
  0.9820541  0.2600181  0.2524095

 Al 
  0.2489951  0.0023204  0.2547522

 Al 
  0.2510742  0.2545196  0.9957094

 Al 
  0.4730050  0.0042028  0.9987847

 Al 
  0.5089278  0.2313252  0.2391738

 Al 
  0.7570504  0.9970571  0.2800344

 Al 
  0.7592966  0.2540518  0.9850898

 Al 
  0.0047943  0.5016200  0.9973034

 Al 
  0.9940981  0.7550814  0.2606950

 Al 
  0.2641738  0.4983256  0.2437751

 Al 
  0.2328796  0.7474964  0.9966177

 Al 
  0.0180919  0.0170041  0.5237340

 Al 
  0.9998960  0.2469135  0.7560814

 Al 
  0.2533847  0.0172665  0.7542696

 Al 
  0.2704718  0.2407863  0.5051841

 Al 
  0.9773885  0.5127221  0.4957824

 Al 
  0.9927603  0.7746807  0.7482786

 Al 
  0.2541805  0.4995730  0.7278439

 Al 
  0.2470831  0.7509096  0.4976499

 Al 
  0.5141169  0.4819563  0.0026360

 Al 
  0.4818697  0.7490471  0.2452601

 Al 
  0.7576122  0.4929632  0.2252908

 Al 
  0.7563846  0.7569415  0.0061544

 Al 
  0.4979333  0.9862222  0.5093696

 Al 
  0.5002970  0.2400512  0.7520407

 Al 
  0.7405438  0.0078746  0.7484728

 Al 
  0.7523897  0.2446921  0.5012895

 Al 
  0.5049936  0.4915437  0.4812076

 Al 
  0.5122420  0.7345342  0.7655203

 Al 
  0.7643706  0.4932751  0.7448629

 Al 
  0.7320776  0.7520469  0.4971425

