32 
charge = 0 
 Al 
  0.9988008  0.0013378  0.0086023

 Al 
  0.9807906  0.2603200  0.2472576

 Al 
  0.2508044  0.0044428  0.2566346

 Al 
  0.2505841  0.2564650  0.9945077

 Al 
  0.4702020  0.0067163  0.9969568

 Al 
  0.5107334  0.2328486  0.2403049

 Al 
  0.7560987  0.9988911  0.2741065

 Al 
  0.7555492  0.2568004  0.9841023

 Al 
  0.0021595  0.4985310  0.9990471

 Al 
  0.9994035  0.7528093  0.2549342

 Al 
  0.2627914  0.4978207  0.2437144

 Al 
  0.2364722  0.7421737  0.9973850

 Al 
  0.0162269  0.0177355  0.5235236

 Al 
  0.9993787  0.2493602  0.7608398

 Al 
  0.2543117  0.0147233  0.7526422

 Al 
  0.2731845  0.2431229  0.5063809

 Al 
  0.9818883  0.5195844  0.4900945

 Al 
  0.9898099  0.7695263  0.7455015

 Al 
  0.2528291  0.5040703  0.7299602

 Al 
  0.2487142  0.7511039  0.5045109

 Al 
  0.5189335  0.4804886  0.0013353

 Al 
  0.4811111  0.7459990  0.2515680

 Al 
  0.7605477  0.4901911  0.2298698

 Al 
  0.7584464  0.7484023  0.0089859

 Al 
  0.4957477  0.9857643  0.5087855

 Al 
  0.4978924  0.2436117  0.7498948

 Al 
  0.7395352  0.0071036  0.7505148

 Al 
  0.7460225  0.2458591  0.4970521

 Al 
  0.5099104  0.4933357  0.4834315

 Al 
  0.5094649  0.7331320  0.7665338

 Al 
  0.7632023  0.4966932  0.7423209

 Al 
  0.7284503  0.7510346  0.4987030

