32 
charge = 0 
 Al 
  0.9984332  0.0014999  0.0084724

 Al 
  0.9807980  0.2603658  0.2478392

 Al 
  0.2506373  0.0041681  0.2564217

 Al 
  0.2506720  0.2562064  0.9946079

 Al 
  0.4703913  0.0065083  0.9971462

 Al 
  0.5105465  0.2326419  0.2401230

 Al 
  0.7562150  0.9986968  0.2748936

 Al 
  0.7560047  0.2565789  0.9841728

 Al 
  0.0024368  0.4988701  0.9988825

 Al 
  0.9987835  0.7530593  0.2556012

 Al 
  0.2630216  0.4979370  0.2436996

 Al 
  0.2359945  0.7427739  0.9973194

 Al 
  0.0165326  0.0176699  0.5236721

 Al 
  0.9994060  0.2490384  0.7603324

 Al 
  0.2542312  0.0151144  0.7528080

 Al 
  0.2729395  0.2427825  0.5063252

 Al 
  0.9812744  0.5188481  0.4907381

 Al 
  0.9901515  0.7701983  0.7458071

 Al 
  0.2530073  0.5035629  0.7296557

 Al 
  0.2485335  0.7510915  0.5036929

 Al 
  0.5184620  0.4805814  0.0015272

 Al 
  0.4811098  0.7463244  0.2508824

 Al 
  0.7602866  0.4904336  0.2292436

 Al 
  0.7582632  0.7493763  0.0086716

 Al 
  0.4960051  0.9857767  0.5088721

 Al 
  0.4981350  0.2431328  0.7501535

 Al 
  0.7396218  0.0072323  0.7502488

 Al 
  0.7467489  0.2456970  0.4975088

 Al 
  0.5093436  0.4931253  0.4831333

 Al 
  0.5098287  0.7332632  0.7664385

 Al 
  0.7633880  0.4962551  0.7425994

 Al 
  0.7287968  0.7511893  0.4985100

