32 
charge = 0 
 Al 
  0.9980546  0.0016732  0.0083424

 Al 
  0.9808475  0.2603869  0.2484419

 Al 
  0.2504542  0.0038958  0.2562039

 Al 
  0.2507524  0.2559514  0.9947218

 Al 
  0.4706265  0.0062707  0.9973479

 Al 
  0.5103485  0.2324390  0.2399522

 Al 
  0.7563326  0.9984902  0.2756708

 Al 
  0.7564663  0.2563215  0.9842570

 Al 
  0.0027301  0.4992228  0.9987018

 Al 
  0.9981498  0.7533191  0.2562843

 Al 
  0.2632382  0.4980385  0.2436921

 Al 
  0.2355230  0.7433927  0.9972452

 Al 
  0.0168185  0.0175981  0.5237884

 Al 
  0.9994431  0.2487179  0.7597965

 Al 
  0.2541384  0.0154881  0.7529850

 Al 
  0.2726660  0.2424558  0.5062435

 Al 
  0.9806742  0.5180734  0.4914027

 Al 
  0.9905017  0.7708653  0.7461264

 Al 
  0.2531830  0.5030382  0.7293612

 Al 
  0.2483466  0.7510754  0.5028612

 Al 
  0.5179508  0.4807015  0.0017128

 Al 
  0.4811358  0.7466672  0.2501646

 Al 
  0.7599933  0.4907059  0.2286310

 Al 
  0.7580578  0.7503799  0.0083449

 Al 
  0.4962700  0.9858027  0.5089550

 Al 
  0.4983936  0.2426613  0.7504171

 Al 
  0.7397183  0.0073524  0.7499851

 Al 
  0.7474989  0.2455386  0.4979877

 Al 
  0.5087595  0.4929100  0.4828400

 Al 
  0.5101889  0.7334080  0.7663346

 Al 
  0.7635637  0.4958183  0.7428877

 Al 
  0.7291743  0.7513403  0.4983157

