32 
charge = 0 
 Al 
  0.9998366  0.0009121  0.0089798

 Al 
  0.9810183  0.2600416  0.2456364

 Al 
  0.2512079  0.0052745  0.2572323

 Al 
  0.2502896  0.2572595  0.9942849

 Al 
  0.4698938  0.0071667  0.9964606

 Al 
  0.5112111  0.2334996  0.2409002

 Al 
  0.7557584  0.9993998  0.2716883

 Al 
  0.7542127  0.2572435  0.9839686

 Al 
  0.0014207  0.4976053  0.9994480

 Al 
  0.0011942  0.7521323  0.2530283

 Al 
  0.2620254  0.4973850  0.2438010

 Al 
  0.2379461  0.7404869  0.9975286

 Al 
  0.0152035  0.0179051  0.5228961

 Al 
  0.9993602  0.2503379  0.7621974

 Al 
  0.2544862  0.0134412  0.7521979

 Al 
  0.2737550  0.2442193  0.5063994

 Al 
  0.9837941  0.5215744  0.4882964

 Al 
  0.9888372  0.7674880  0.7446587

 Al 
  0.2522821  0.5054874  0.7309403

 Al 
  0.2492104  0.7511348  0.5068796

 Al 
  0.5201191  0.4803698  0.0007302

 Al 
  0.4812571  0.7451116  0.2534466

 Al 
  0.7611443  0.4896428  0.2318239

 Al 
  0.7588746  0.7456475  0.0098535

 Al 
  0.4950114  0.9858027  0.5085058

 Al 
  0.4972637  0.2450894  0.7491399

 Al 
  0.7393347  0.0066742  0.7513267

 Al 
  0.7439867  0.2463603  0.4958158

 Al 
  0.5115007  0.4939359  0.4843535

 Al 
  0.5083610  0.7328189  0.7667789

 Al 
  0.7626021  0.4980026  0.7415388

 Al 
  0.7276001  0.7505482  0.4992637

