32 
charge = 0 
 Al 
  0.0007896  0.0005619  0.0093337

 Al 
  0.9816036  0.2595503  0.2441909

 Al 
  0.2514801  0.0061160  0.2577818

 Al 
  0.2499554  0.2580800  0.9941686

 Al 
  0.4699557  0.0073796  0.9960683

 Al 
  0.5115663  0.2342000  0.2415672

 Al 
  0.7554242  0.9997921  0.2691810

 Al 
  0.7529206  0.2573660  0.9839389

 Al 
  0.0008143  0.4968059  0.9997154

 Al 
  0.0028971  0.7515581  0.2512425

 Al 
  0.2611579  0.4968219  0.2439595

 Al 
  0.2394881  0.7389498  0.9976016

 Al 
  0.0140241  0.0180399  0.5220113

 Al 
  0.9994270  0.2513242  0.7633112

 Al 
  0.2545542  0.0120093  0.7518242

 Al 
  0.2740854  0.2454346  0.5062064

 Al 
  0.9858076  0.5232439  0.4866851

 Al 
  0.9879362  0.7654138  0.7439273

 Al 
  0.2517103  0.5067509  0.7320219

 Al 
  0.2496485  0.7511621  0.5091332

 Al 
  0.5209693  0.4804874  0.0000916

 Al 
  0.4816049  0.7443481  0.2550777

 Al 
  0.7614697  0.4893520  0.2339030

 Al 
  0.7591258  0.7431216  0.0106121

 Al 
  0.4943382  0.9859549  0.5082001

 Al 
  0.4967675  0.2466289  0.7484196

 Al 
  0.7392072  0.0061829  0.7521633

 Al 
  0.7421588  0.2468801  0.4947651

 Al 
  0.5129177  0.4944966  0.4853188

 Al 
  0.5072336  0.7326246  0.7669645

 Al 
  0.7619425  0.4993045  0.7408210

 Al 
  0.7270209  0.7500557  0.4997933

