32 
charge = 0 
 Al 
  0.0033488  0.9997711  0.0101851

 Al 
  0.9854091  0.2568474  0.2407109

 Al 
  0.2516422  0.0087459  0.2592446

 Al 
  0.2488392  0.2607000  0.9943196

 Al 
  0.4722266  0.0068276  0.9954804

 Al 
  0.5118856  0.2367346  0.2439483

 Al 
  0.7543735  0.0003193  0.2607816

 Al 
  0.7491634  0.2558277  0.9844599

 Al 
  0.9996362  0.4950955  0.9998503

 Al 
  0.0078857  0.7503812  0.2462044

 Al 
  0.2579588  0.4944037  0.2449458

 Al 
  0.2447255  0.7349426  0.9974704

 Al 
  0.0094785  0.0183234  0.5178828

 Al 
  0.0000928  0.2543599  0.7652666

 Al 
  0.2540654  0.0067967  0.7509801

 Al 
  0.2736325  0.2499443  0.5044651

 Al 
  0.9927541  0.5265148  0.4827632

 Al 
  0.9855564  0.7587830  0.7423209

 Al 
  0.2497772  0.5097272  0.7360749

 Al 
  0.2507302  0.7513267  0.5154485

 Al 
  0.5215979  0.4823029  0.9980273

 Al 
  0.4837186  0.7426019  0.2587978

 Al 
  0.7609648  0.4898607  0.2411180

 Al 
  0.7589005  0.7364549  0.0123125

 Al 
  0.4926761  0.9871628  0.5070875

 Al 
  0.4958938  0.2517437  0.7464061

 Al 
  0.7391503  0.0043080  0.7549119

 Al 
  0.7377593  0.2484654  0.4925660

 Al 
  0.5161230  0.4960460  0.4886676

 Al 
  0.5036124  0.7327645  0.7672157

 Al 
  0.7596171  0.5032065  0.7388607

 Al 
  0.7268056  0.7487117  0.5012239

