32 
charge = 0 
 Al 
  0.0028006  0.9999282  0.0100317

 Al 
  0.9843003  0.2576048  0.2413890

 Al 
  0.2516806  0.0081444  0.2589377

 Al 
  0.2490904  0.2600985  0.9942292

 Al 
  0.4714531  0.0070912  0.9955336

 Al 
  0.5119140  0.2361022  0.2433729

 Al 
  0.7546248  0.0002846  0.2627976

 Al 
  0.7499963  0.2564168  0.9842594

 Al 
  0.9998292  0.4953901  0.9998948

 Al 
  0.0067608  0.7505779  0.2473145

 Al 
  0.2587483  0.4950349  0.2446537

 Al 
  0.2434620  0.7357767  0.9975360

 Al 
  0.0106319  0.0182726  0.5189941

 Al 
  0.9998861  0.2536731  0.7650141

 Al 
  0.2542708  0.0080776  0.7511410

 Al 
  0.2739283  0.2488132  0.5049960

 Al 
  0.9910636  0.5260061  0.4835293

 Al 
  0.9860490  0.7603275  0.7426056

 Al 
  0.2502438  0.5091679  0.7350502

 Al 
  0.2505099  0.7512710  0.5140859

 Al 
  0.5217056  0.4817026  0.9985025

 Al 
  0.4831135  0.7429323  0.2581011

 Al 
  0.7612581  0.4895797  0.2393656

 Al 
  0.7590763  0.7378508  0.0120031

 Al 
  0.4929966  0.9867865  0.5073647

 Al 
  0.4960237  0.2505309  0.7468393

 Al 
  0.7391293  0.0047819  0.7542622

 Al 
  0.7386058  0.2481177  0.4929409

 Al 
  0.5155524  0.4957081  0.4878459

 Al 
  0.5044552  0.7326370  0.7671984

 Al 
  0.7601827  0.5023378  0.7392839

 Al 
  0.7266571  0.7489778  0.5009245

