32 
charge = 0 
 Al 
  0.0016781  0.0002661  0.0096592

 Al 
  0.9825330  0.2588535  0.2429013

 Al 
  0.2516348  0.0069724  0.2582941

 Al 
  0.2495941  0.2589265  0.9941414

 Al 
  0.4703678  0.0073833  0.9957750

 Al 
  0.5117989  0.2349624  0.2422999

 Al 
  0.7550913  0.0000743  0.2665561

 Al 
  0.7516596  0.2571704  0.9840082

 Al 
  0.0003255  0.4961264  0.9998626

 Al 
  0.0045542  0.7510804  0.2495359

 Al 
  0.2601926  0.4961376  0.2441983

 Al 
  0.2411143  0.7375316  0.9976103

 Al 
  0.0126850  0.0181513  0.5208814

 Al 
  0.9995718  0.2523217  0.7641936

 Al 
  0.2545109  0.0104289  0.7515049

 Al 
  0.2741783  0.2467811  0.5058141

 Al 
  0.9879499  0.5246164  0.4852384

 Al 
  0.9870947  0.7632865  0.7432986

 Al 
  0.2511101  0.5078734  0.7332236

 Al 
  0.2500396  0.7511967  0.5112965

 Al 
  0.5214952  0.4808438  0.9994258

 Al 
  0.4821345  0.7436872  0.2564935

 Al 
  0.7615403  0.4893000  0.2361257

 Al 
  0.7592112  0.7407752  0.0112692

 Al 
  0.4937231  0.9862247  0.5078647

 Al 
  0.4963863  0.2482402  0.7477278

 Al 
  0.7391416  0.0056284  0.7530333

 Al 
  0.7405215  0.2474085  0.4938827

 Al 
  0.5141639  0.4950275  0.4863460

 Al 
  0.5060727  0.7325491  0.7670982

 Al 
  0.7612284  0.5006027  0.7401478

 Al 
  0.7266979  0.7495730  0.5002945

