32 
charge = 0 
 Al 
  0.0019640  0.0001770  0.0097594

 Al 
  0.9829192  0.2585751  0.2425028

 Al 
  0.2516620  0.0072620  0.2584587

 Al 
  0.2494691  0.2592161  0.9941513

 Al 
  0.4705819  0.0073412  0.9956982

 Al 
  0.5118484  0.2352334  0.2425585

 Al 
  0.7549775  0.0001448  0.2656465

 Al 
  0.7512425  0.2570343  0.9840528

 Al 
  0.0001856  0.4959235  0.9998874

 Al 
  0.0051037  0.7509405  0.2489778

 Al 
  0.2598485  0.4958826  0.2442961

 Al 
  0.2416811  0.7370811  0.9975991

 Al 
  0.0122024  0.0181835  0.5204507

 Al 
  0.9996374  0.2526570  0.7644362

 Al 
  0.2544713  0.0098671  0.7514083

 Al 
  0.2741560  0.2472625  0.5056396

 Al 
  0.9886986  0.5250099  0.4847891

 Al 
  0.9868261  0.7625613  0.7431093

 Al 
  0.2509009  0.5082174  0.7336543

 Al 
  0.2501621  0.7512116  0.5120031

 Al 
  0.5216004  0.4810170  0.9991981

 Al 
  0.4823499  0.7434855  0.2569242

 Al 
  0.7615081  0.4893334  0.2369041

 Al 
  0.7592038  0.7400252  0.0114685

 Al 
  0.4935313  0.9863435  0.5077459

 Al 
  0.4962811  0.2487971  0.7475026

 Al 
  0.7391305  0.0054292  0.7533328

 Al 
  0.7400141  0.2475855  0.4936228

 Al 
  0.5145401  0.4951995  0.4867049

 Al 
  0.5056767  0.7325504  0.7671316

 Al 
  0.7609772  0.5010358  0.7399287

 Al 
  0.7266460  0.7494183  0.5004554

