32 
charge = 0 
 Al 
  0.0038934  0.9996176  0.0103089

 Al 
  0.9866640  0.2560034  0.2400846

 Al 
  0.2515655  0.0093560  0.2595416

 Al 
  0.2485978  0.2613064  0.9944384

 Al 
  0.4731548  0.0064898  0.9954742

 Al 
  0.5117964  0.2374140  0.2445436

 Al 
  0.7541025  0.0003069  0.2586642

 Al 
  0.7483256  0.2550988  0.9847136

 Al 
  0.9994765  0.4948493  0.9997673

 Al 
  0.0090354  0.7502228  0.2450881

 Al 
  0.2571246  0.4937218  0.2452824

 Al 
  0.2460547  0.7341344  0.9973912

 Al 
  0.0082372  0.0183679  0.5166613

 Al 
  0.0003329  0.2550542  0.7654064

 Al 
  0.2538006  0.0054478  0.7508316

 Al 
  0.2732167  0.2511559  0.5038600

 Al 
  0.9945399  0.5268947  0.4820566

 Al 
  0.9850837  0.7571915  0.7420784

 Al 
  0.2492847  0.5102247  0.7371801

 Al 
  0.2509443  0.7513947  0.5167888

 Al 
  0.5213467  0.4830182  0.9975484

 Al 
  0.4844005  0.7423011  0.2594265

 Al 
  0.7605737  0.4902307  0.2429645

 Al 
  0.7586518  0.7350985  0.0125835

 Al 
  0.4923865  0.9876070  0.5067905

 Al 
  0.4957948  0.2530036  0.7459816

 Al 
  0.7391874  0.0037981  0.7555851

 Al 
  0.7369895  0.2488033  0.4922566

 Al 
  0.5166019  0.4963863  0.4895426

 Al 
  0.5027462  0.7329538  0.7672071

 Al 
  0.7590194  0.5040703  0.7384412

 Al 
  0.7270704  0.7484766  0.5015123

