32 
charge = 0 
 Al 
  0.0022449  0.0000916  0.0098547

 Al 
  0.9833424  0.2582743  0.2421180

 Al 
  0.2516781  0.0075541  0.2586209

 Al 
  0.2493429  0.2595070  0.9941686

 Al 
  0.4708344  0.0072781  0.9956326

 Al 
  0.5118843  0.2355131  0.2428234

 Al 
  0.7548624  0.0002030  0.2647183

 Al 
  0.7508267  0.2568635  0.9841097

 Al 
  0.0000569  0.4957341  0.9999010

 Al 
  0.0056532  0.7508106  0.2484221

 Al 
  0.2594933  0.4956128  0.2444050

 Al 
  0.2422603  0.7366380  0.9975843

 Al 
  0.0116987  0.0182144  0.5199928

 Al 
  0.9997116  0.2529937  0.7646552

 Al 
  0.2544181  0.0092879  0.7513155

 Al 
  0.2741077  0.2477612  0.5054453

 Al 
  0.9894659  0.5253725  0.4843547

 Al 
  0.9865625  0.7618274  0.7429310

 Al 
  0.2506868  0.5085491  0.7341010

 Al 
  0.2502809  0.7512289  0.5127036

 Al 
  0.5216710  0.4812175  0.9989691

 Al 
  0.4825850  0.7432936  0.2573350

 Al 
  0.7614512  0.4893916  0.2377036

 Al 
  0.7591790  0.7392877  0.0116566

 Al 
  0.4933469  0.9864759  0.5076234

 Al 
  0.4961858  0.2493639  0.7472798

 Al 
  0.7391255  0.0052213  0.7536372

 Al 
  0.7395265  0.2477637  0.4933790

 Al 
  0.5148978  0.4953703  0.4870749

 Al 
  0.5052757  0.7325652  0.7671588

 Al 
  0.7607198  0.5014690  0.7397121

 Al 
  0.7266224  0.7492661  0.5006151

