32 
charge = 0 
 Al 
  0.0049812  0.9993020  0.0104426

 Al 
  0.9895810  0.2540914  0.2389919

 Al 
  0.2513168  0.0105861  0.2600960

 Al 
  0.2481820  0.2625056  0.9947540

 Al 
  0.4754690  0.0056111  0.9956128

 Al 
  0.5114202  0.2389077  0.2457688

 Al 
  0.7534850  0.0001374  0.2541310

 Al 
  0.7466437  0.2532387  0.9853930

 Al 
  0.9992339  0.4945151  0.9995112

 Al 
  0.0114103  0.7500161  0.2428407

 Al 
  0.2553512  0.4922355  0.2460943

 Al 
  0.2488998  0.7326023  0.9972081

 Al 
  0.0054948  0.0184323  0.5138978

 Al 
  0.0008985  0.2564415  0.7653185

 Al 
  0.2530852  0.0025877  0.7505779

 Al 
  0.2719989  0.2538179  0.5024504

 Al 
  0.9983961  0.5272425  0.4808339

 Al 
  0.9842174  0.7538983  0.7417380

 Al 
  0.2482241  0.5110007  0.7396230

 Al 
  0.2513564  0.7515779  0.5193617

 Al 
  0.5204086  0.4847879  0.9965905

 Al 
  0.4859834  0.7417888  0.2604735

 Al 
  0.7595292  0.4912220  0.2469098

 Al 
  0.7579229  0.7325194  0.0130055

 Al 
  0.4919237  0.9887134  0.5061371

 Al 
  0.4956698  0.2556396  0.7451698

 Al 
  0.7393025  0.0026781  0.7569910

 Al 
  0.7357086  0.2494233  0.4918445

 Al 
  0.5172417  0.4970880  0.4914571

 Al 
  0.5009665  0.7335206  0.7671143

 Al 
  0.7577372  0.5057522  0.7376231

 Al 
  0.7279602  0.7481226  0.5020383

