32 
charge = 0 
 Al 
  0.0055232  0.9991349  0.0104364

 Al 
  0.9912071  0.2530506  0.2385377

 Al 
  0.2511534  0.0111913  0.2603448

 Al 
  0.2480286  0.2630761  0.9949433

 Al 
  0.4768341  0.0050827  0.9957613

 Al 
  0.5111331  0.2397171  0.2463814

 Al 
  0.7531310  0.9999802  0.2517450

 Al 
  0.7458084  0.2521336  0.9858163

 Al 
  0.9991411  0.4944310  0.9993453

 Al 
  0.0126269  0.7499691  0.2417257

 Al 
  0.2544342  0.4914522  0.2465621

 Al 
  0.2503935  0.7318907  0.9971202

 Al 
  0.0040109  0.0184459  0.5123793

 Al 
  0.0012165  0.2571222  0.7650785

 Al 
  0.2526348  0.0011113  0.7504789

 Al 
  0.2711933  0.2552510  0.5016682

 Al 
  0.0004393  0.5271979  0.4803314

 Al 
  0.9838374  0.7522251  0.7416465

 Al 
  0.2476610  0.5112593  0.7409423

 Al 
  0.2515556  0.7516905  0.5205609

 Al 
  0.5197305  0.4858237  0.9961277

 Al 
  0.4868682  0.7415796  0.2608819

 Al 
  0.7588944  0.4918284  0.2489753

 Al 
  0.7574464  0.7313178  0.0131528

 Al 
  0.4917603  0.9893743  0.5057856

 Al 
  0.4956376  0.2569873  0.7447936

 Al 
  0.7393792  0.0020754  0.7577125

 Al 
  0.7352173  0.2496906  0.4917479

 Al 
  0.5173803  0.4974506  0.4924855

 Al 
  0.5000755  0.7338993  0.7670264

 Al 
  0.7570591  0.5065418  0.7372370

 Al 
  0.7285852  0.7480187  0.5022660

