32 
charge = 0 
 Al 
  0.0044367  0.9994617  0.0103980

 Al 
  0.9880588  0.2550814  0.2395092

 Al 
  0.2514566  0.0099710  0.2598262

 Al 
  0.2483763  0.2619115  0.9945844

 Al 
  0.4742389  0.0060826  0.9955175

 Al 
  0.5116418  0.2381392  0.2451525

 Al 
  0.7538080  0.0002463  0.2564440

 Al 
  0.7474853  0.2542325  0.9850255

 Al 
  0.9993429  0.4946550  0.9996535

 Al 
  0.0102111  0.7501002  0.2439656

 Al 
  0.2562522  0.4929966  0.2456661

 Al 
  0.2474481  0.7333523  0.9973009

 Al 
  0.0069068  0.0184050  0.5153297

 Al 
  0.0006015  0.2557497  0.7654262

 Al 
  0.2534738  0.0040394  0.7506967

 Al 
  0.2726734  0.2524491  0.5031855

 Al 
  0.9964234  0.5271397  0.4814118

 Al 
  0.9846357  0.7555604  0.7418828

 Al 
  0.2487674  0.5106517  0.7383644

 Al 
  0.2511534  0.7514789  0.5180969

 Al 
  0.5209495  0.4838486  0.9970670

 Al 
  0.4851579  0.7420289  0.2599859

 Al 
  0.7600923  0.4906873  0.2448988

 Al 
  0.7583251  0.7337842  0.0128150

 Al 
  0.4921341  0.9881244  0.5064737

 Al 
  0.4957217  0.2543055  0.7455683

 Al 
  0.7392382  0.0032548  0.7562794

 Al 
  0.7363027  0.2491250  0.4920152

 Al 
  0.5169781  0.4967328  0.4904732

 Al 
  0.5018613  0.7332050  0.7671749

 Al 
  0.7583919  0.5049230  0.7380266

 Al 
  0.7274553  0.7482773  0.5017846

