32 
charge = 0 
 Al 
  0.0071209  0.9985818  0.0100354

 Al 
  0.9964086  0.2498453  0.2376120

 Al 
  0.2505742  0.0128422  0.2609190

 Al 
  0.2478912  0.2645067  0.9955770

 Al 
  0.4814960  0.0032894  0.9965101

 Al 
  0.5098980  0.2422813  0.2480607

 Al 
  0.7518885  0.9992500  0.2444768

 Al 
  0.7434335  0.2483924  0.9873583

 Al 
  0.9989246  0.4945225  0.9987860

 Al 
  0.0162381  0.7500272  0.2385983

 Al 
  0.2517784  0.4891639  0.2481226

 Al 
  0.2549131  0.7300864  0.9969692

 Al 
  0.9993342  0.0183877  0.5075405

 Al 
  0.0022214  0.2589760  0.7635723

 Al 
  0.2509777  0.9968219  0.7503341

 Al 
  0.2680734  0.2597124  0.4992278

 Al 
  0.0067051  0.5261794  0.4793265

 Al 
  0.9830021  0.7473962  0.7417257

 Al 
  0.2459309  0.5114413  0.7450733

 Al 
  0.2521088  0.7520902  0.5235521

 Al 
  0.5170239  0.4893062  0.9949297

 Al 
  0.4897357  0.7411465  0.2616083

 Al 
  0.7567274  0.4939384  0.2551879

 Al 
  0.7556470  0.7282424  0.0133285

 Al 
  0.4915970  0.9917071  0.5046730

 Al 
  0.4956116  0.2608955  0.7438753

 Al 
  0.7396688  0.0001918  0.7598238

 Al 
  0.7344488  0.2502327  0.4919101

 Al 
  0.5169695  0.4985904  0.4956945

 Al 
  0.4975806  0.7353869  0.7665858

 Al 
  0.7549775  0.5085008  0.7362680

 Al 
  0.7310938  0.7480669  0.5027387

