32 
charge = 0 
 Al 
  0.0088634  0.9978677  0.0087360

 Al 
  0.0021249  0.2465571  0.2374016

 Al 
  0.2499493  0.0141701  0.2611752

 Al 
  0.2484543  0.2653074  0.9962886

 Al 
  0.4871776  0.0011658  0.9978120

 Al 
  0.5079823  0.2452564  0.2494282

 Al 
  0.7501893  0.9980632  0.2367915

 Al 
  0.7411514  0.2440510  0.9894485

 Al 
  0.9986585  0.4952032  0.9982414

 Al 
  0.0199644  0.7503193  0.2357717

 Al 
  0.2493577  0.4871628  0.2498626

 Al 
  0.2595763  0.7288154  0.9972340

 Al 
  0.9940597  0.0180536  0.5020717

 Al 
  0.0032399  0.2605032  0.7605886

 Al 
  0.2486907  0.9928197  0.7505383

 Al 
  0.2635266  0.2645141  0.4967341

 Al 
  0.0133397  0.5235867  0.4791495

 Al 
  0.9827818  0.7427862  0.7424521

 Al 
  0.2440659  0.5105663  0.7496027

 Al 
  0.2526311  0.7525766  0.5254096

 Al 
  0.5132221  0.4933865  0.9941859

 Al 
  0.4930127  0.7409658  0.2615229

 Al 
  0.7541817  0.4965707  0.2615378

 Al 
  0.7531706  0.7259220  0.0130786

 Al 
  0.4920388  0.9947837  0.5034181

 Al 
  0.4956339  0.2645624  0.7433592

 Al 
  0.7400809  0.9980744  0.7618509

 Al 
  0.7349364  0.2502710  0.4928642

 Al 
  0.5149559  0.5000198  0.4992129

 Al 
  0.4954458  0.7375971  0.7656997

 Al 
  0.7526979  0.5096468  0.7357260

 Al 
  0.7348411  0.7488565  0.5028043

