32 
charge = 0 
 Al 
  0.0114301  0.9966932  0.0047844

 Al 
  0.0088090  0.2431959  0.2384944

 Al 
  0.2496832  0.0145327  0.2606789

 Al 
  0.2507079  0.2643471  0.9971276

 Al 
  0.4951463  0.9981498  0.0004183

 Al 
  0.5045183  0.2497092  0.2501745

 Al 
  0.7472712  0.9957539  0.2276323

 Al 
  0.7388199  0.2388954  0.9929484

 Al 
  0.9980397  0.4969841  0.9981078

 Al 
  0.0243503  0.7507611  0.2335120

 Al 
  0.2477377  0.4864673  0.2513390

 Al 
  0.2647010  0.7287783  0.9990508

 Al 
  0.9868410  0.0166081  0.4947131

 Al 
  0.0040852  0.2613608  0.7540703

 Al 
  0.2447342  0.9894325  0.7517994

 Al 
  0.2553277  0.2700287  0.4945263

 Al 
  0.0209160  0.5174806  0.4808537

 Al 
  0.9842644  0.7382803  0.7447107

 Al 
  0.2417257  0.5074873  0.7553673

 Al 
  0.2531929  0.7531805  0.5244802

 Al 
  0.5071630  0.4985991  0.9948616

 Al 
  0.4973640  0.7412541  0.2598473

 Al 
  0.7509306  0.5004232  0.2685436

 Al 
  0.7490904  0.7248218  0.0119561

 Al 
  0.4938815  0.9998985  0.5016868

 Al 
  0.4956302  0.2676427  0.7438456

 Al 
  0.7408903  0.9950188  0.7636676

 Al 
  0.7381367  0.2492674  0.4955151

 Al 
  0.5090045  0.5027499  0.5037053

 Al 
  0.4942812  0.7418568  0.7632555

 Al 
  0.7495953  0.5087657  0.7363955

 Al 
  0.7417306  0.7515742  0.5019306

