32 
charge = 0 
 Al 
  0.0109636  0.9969110  0.0056915

 Al 
  0.0078090  0.2436439  0.2382011

 Al 
  0.2496374  0.0146367  0.2608485

 Al 
  0.2501869  0.2647258  0.9969989

 Al 
  0.4937949  0.9986919  0.9998973

 Al 
  0.5051817  0.2488899  0.2501436

 Al 
  0.7478182  0.9962205  0.2290642

 Al 
  0.7391354  0.2396527  0.9922863

 Al 
  0.9981758  0.4966252  0.9980521

 Al 
  0.0236647  0.7507005  0.2337335

 Al 
  0.2478306  0.4863460  0.2512277

 Al 
  0.2639548  0.7286013  0.9985768

 Al 
  0.9880860  0.0169868  0.4959705

 Al 
  0.0040072  0.2613286  0.7554131

 Al 
  0.2454891  0.9898111  0.7514814

 Al 
  0.2569155  0.2692169  0.4947552

 Al 
  0.0197948  0.5187540  0.4803648

 Al 
  0.9838176  0.7388855  0.7442033

 Al 
  0.2421068  0.5081741  0.7544169

 Al 
  0.2531088  0.7530865  0.5249901

 Al 
  0.5082595  0.4977699  0.9945646

 Al 
  0.4966351  0.7411465  0.2602681

 Al 
  0.7514492  0.4997500  0.2675053

 Al 
  0.7498490  0.7248255  0.0122222

 Al 
  0.4934521  0.9989307  0.5019863

 Al 
  0.4956401  0.2673147  0.7436464

 Al 
  0.7407195  0.9955757  0.7634585

 Al 
  0.7373670  0.2495186  0.4949446

 Al 
  0.5103299  0.5021806  0.5029602

 Al 
  0.4943010  0.7409918  0.7638223

 Al 
  0.7501398  0.5091617  0.7361356

 Al 
  0.7403792  0.7509455  0.5021694

