32 
charge = 0 
 Al 
  0.0095713  0.9975521  0.0078981

 Al 
  0.0042424  0.2454173  0.2375575

 Al 
  0.2497649  0.0144881  0.2611455

 Al 
  0.2489159  0.2653148  0.9965522

 Al 
  0.4894869  0.0003168  0.9984617

 Al 
  0.5070801  0.2464804  0.2497847

 Al 
  0.7494171  0.9974877  0.2339550

 Al 
  0.7403681  0.2424100  0.9903780

 Al 
  0.9985186  0.4956289  0.9981041

 Al 
  0.0213244  0.7504604  0.2348968

 Al 
  0.2486449  0.4866529  0.2504579

 Al 
  0.2612358  0.7285667  0.9975447

 Al 
  0.9919769  0.0177937  0.4999295

 Al 
  0.0035704  0.2609116  0.7590144

 Al 
  0.2476536  0.9915586  0.7507661

 Al 
  0.2614079  0.2662764  0.4959061

 Al 
  0.0157579  0.5221388  0.4793810

 Al 
  0.9829588  0.7412480  0.7429409

 Al 
  0.2433617  0.5099042  0.7513279

 Al 
  0.2528105  0.7527635  0.5256138

 Al 
  0.5115576  0.4949718  0.9941401

 Al 
  0.4942936  0.7409757  0.2612296

 Al 
  0.7531941  0.4976622  0.2637902

 Al 
  0.7520729  0.7253440  0.0128533

 Al 
  0.4924137  0.9961413  0.5029206

 Al 
  0.4956425  0.2657232  0.7433394

 Al 
  0.7402765  0.9972254  0.7625118

 Al 
  0.7355477  0.2501040  0.4934657

 Al 
  0.5136528  0.5006844  0.5005532

 Al 
  0.4948666  0.7386540  0.7651787

 Al 
  0.7518093  0.5097235  0.7357235

 Al 
  0.7366034  0.7494221  0.5026768

