32 
charge = 0 
 Al 
  0.0093374  0.9976573  0.0081964

 Al 
  0.0035617  0.2457774  0.2374920

 Al 
  0.2498193  0.0144003  0.2611641

 Al 
  0.2487488  0.2653346  0.9964668

 Al 
  0.4887283  0.0005953  0.9982402

 Al 
  0.5073845  0.2460757  0.2496807

 Al 
  0.7496758  0.9976833  0.2348683

 Al 
  0.7406156  0.2429385  0.9900661

 Al 
  0.9985681  0.4954804  0.9981424

 Al 
  0.0208863  0.7504133  0.2351653

 Al 
  0.2488602  0.4867977  0.2502723

 Al 
  0.2607062  0.7286298  0.9974271

 Al 
  0.9926588  0.0178890  0.5006299

 Al 
  0.0034677  0.2607915  0.7595565

 Al 
  0.2480013  0.9919484  0.7506807

 Al 
  0.2621232  0.2657109  0.4961648

 Al 
  0.0149819  0.5226400  0.4792844

 Al 
  0.9828820  0.7417318  0.7427677

 Al 
  0.2435907  0.5101418  0.7507685

 Al 
  0.2527536  0.7527041  0.5255841

 Al 
  0.5121108  0.4944570  0.9941364

 Al 
  0.4938753  0.7409670  0.2613423

 Al 
  0.7535147  0.4973021  0.2630711

 Al 
  0.7524405  0.7255111  0.0129350

 Al 
  0.4922776  0.9956871  0.5030840

 Al 
  0.4956401  0.2653643  0.7433333

 Al 
  0.7402096  0.9975051  0.7623063

 Al 
  0.7353200  0.2501708  0.4932540

 Al 
  0.5141132  0.5004579  0.5001188

 Al 
  0.4950374  0.7382951  0.7653631

 Al 
  0.7521001  0.5097248  0.7357099

 Al 
  0.7360081  0.7492191  0.5027288

