32 
charge = 0 
 Al 
  0.0098052  0.9974457  0.0075801

 Al 
  0.0048983  0.2450757  0.2376368

 Al 
  0.2497191  0.0145587  0.2611170

 Al 
  0.2490966  0.2652728  0.9966338

 Al 
  0.4902332  0.0000408  0.9986894

 Al 
  0.5067719  0.2468826  0.2498750

 Al 
  0.7491547  0.9972873  0.2330714

 Al 
  0.7401329  0.2419002  0.9906911

 Al 
  0.9984679  0.4957836  0.9980744

 Al 
  0.0217477  0.7505049  0.2346493

 Al 
  0.2484530  0.4865341  0.2506274

 Al 
  0.2617432  0.7285233  0.9976771

 Al 
  0.9913061  0.0176885  0.4992438

 Al 
  0.0036644  0.2610168  0.7584563

 Al 
  0.2473009  0.9911985  0.7508601

 Al 
  0.2606839  0.2668209  0.4956673

 Al 
  0.0165029  0.5216190  0.4794973

 Al 
  0.9830541  0.7407913  0.7431253

 Al 
  0.2431390  0.5096517  0.7518737

 Al 
  0.2528662  0.7528229  0.5256039

 Al 
  0.5110044  0.4954718  0.9941637

 Al 
  0.4947032  0.7409893  0.2611022

 Al 
  0.7528823  0.4980187  0.2644795

 Al 
  0.7517054  0.7252005  0.0127642

 Al 
  0.4925610  0.9965979  0.5027598

 Al 
  0.4956438  0.2660537  0.7433592

 Al 
  0.7403445  0.9969482  0.7627036

 Al 
  0.7357977  0.2500272  0.4936884

 Al 
  0.5131652  0.5009158  0.5009777

 Al 
  0.4947181  0.7390216  0.7649832

 Al 
  0.7515234  0.5096951  0.7357544

 Al 
  0.7372086  0.7496386  0.5026150

