32 
charge = 0 
 Al 
  0.0116653  0.9965831  0.0042956

 Al 
  0.0092743  0.2429979  0.2386528

 Al 
  0.2497265  0.0144498  0.2605812

 Al 
  0.2509876  0.2641218  0.9971883

 Al 
  0.4958071  0.9978763  0.0006868

 Al 
  0.5041792  0.2501250  0.2501770

 Al 
  0.7469964  0.9955101  0.2269479

 Al 
  0.7386800  0.2385488  0.9932850

 Al 
  0.9979667  0.4971660  0.9981498

 Al 
  0.0246770  0.7507859  0.2334328

 Al 
  0.2477241  0.4865724  0.2513638

 Al 
  0.2650475  0.7288996  0.9993144

 Al 
  0.9862247  0.0163940  0.4940906

 Al 
  0.0041099  0.2613583  0.7533699

 Al 
  0.2443493  0.9892790  0.7519727

 Al 
  0.2545134  0.2704037  0.4944421

 Al 
  0.0214358  0.5168148  0.4811284

 Al 
  0.9845193  0.7380080  0.7449817

 Al 
  0.2415413  0.5071234  0.7558326

 Al 
  0.2532325  0.7532263  0.5241671

 Al 
  0.5066135  0.4989963  0.9950411

 Al 
  0.4977216  0.7413197  0.2596196

 Al 
  0.7506819  0.5007562  0.2690300

 Al 
  0.7487067  0.7248503  0.0118113

 Al 
  0.4941129  0.0003935  0.5015383

 Al 
  0.4956227  0.2677689  0.7439644

 Al 
  0.7409819  0.9947354  0.7637518

 Al 
  0.7385525  0.2491349  0.4958158

 Al 
  0.5082979  0.5030494  0.5040691

 Al 
  0.4943023  0.7423098  0.7629474

 Al 
  0.7493218  0.5085293  0.7365502

 Al 
  0.7424261  0.7519120  0.5017982

