32 
charge = 0 
 Al 
  0.0133459  0.9957824  0.0001720

 Al 
  0.0118905  0.2421044  0.2399324

 Al 
  0.2504554  0.0132370  0.2596183

 Al 
  0.2532783  0.2618162  0.9975632

 Al 
  0.5001349  0.9958232  0.0027325

 Al 
  0.5016571  0.2532548  0.2499839

 Al 
  0.7450745  0.9935746  0.2227414

 Al 
  0.7380724  0.2367816  0.9958096

 Al 
  0.9973640  0.4984345  0.9987463

 Al 
  0.0266769  0.7508576  0.2334946

 Al 
  0.2482724  0.4881924  0.2508873

 Al 
  0.2669818  0.7304713  0.0016571

 Al 
  0.9819625  0.0143000  0.4897567

 Al 
  0.0040147  0.2609945  0.7478850

 Al 
  0.2414992  0.9888273  0.7534417

 Al 
  0.2484283  0.2723788  0.4944508

 Al 
  0.0242562  0.5116059  0.4837112

 Al 
  0.9869598  0.7366207  0.7472229

 Al 
  0.2403507  0.5042114  0.7589699

 Al 
  0.2534726  0.7535530  0.5208455

 Al 
  0.5027177  0.5014343  0.9968888

 Al 
  0.5001374  0.7420276  0.2577063

 Al 
  0.7491337  0.5030382  0.2718962

 Al 
  0.7459222  0.7255705  0.0105428

 Al 
  0.4960336  0.0041149  0.5005148

 Al 
  0.4955039  0.2679459  0.7451290

 Al 
  0.7417727  0.9926019  0.7639684

 Al 
  0.7420078  0.2481350  0.4982018

 Al 
  0.5024788  0.5055059  0.5065517

 Al 
  0.4950250  0.7459297  0.7602458

 Al 
  0.7473516  0.5061334  0.7380922

 Al 
  0.7477699  0.7547448  0.5006411

