32 
charge = 0 
 Al 
  0.0126194  0.9961314  0.0020927

 Al 
  0.0109104  0.2423803  0.2393545

 Al 
  0.2500458  0.0138978  0.2600911

 Al 
  0.2522264  0.2629659  0.9974123

 Al 
  0.4983516  0.9967353  0.0018242

 Al 
  0.5027697  0.2518613  0.2501052

 Al 
  0.7458901  0.9944557  0.2244171

 Al 
  0.7382481  0.2373892  0.9946909

 Al 
  0.9976424  0.4978986  0.9984221

 Al 
  0.0258849  0.7508502  0.2333313

 Al 
  0.2478986  0.4873026  0.2512376

 Al 
  0.2662579  0.7296347  0.0005470

 Al 
  0.9837768  0.0153359  0.4916155

 Al 
  0.0041174  0.2612259  0.7503614

 Al 
  0.2427504  0.9888904  0.7527622

 Al 
  0.2511150  0.2716796  0.4943159

 Al 
  0.0232328  0.5139535  0.4824600

 Al 
  0.9857693  0.7371071  0.7461883

 Al 
  0.2408371  0.5055344  0.7576432

 Al 
  0.2533798  0.7534082  0.5225150

 Al 
  0.5043971  0.5004628  0.9959680

 Al 
  0.4991189  0.7416663  0.2585899

 Al 
  0.7497562  0.5020717  0.2707799

 Al 
  0.7471375  0.7251510  0.0111455

 Al 
  0.4951450  0.0024615  0.5009504

 Al 
  0.4955720  0.2680251  0.7445584

 Al 
  0.7413977  0.9935523  0.7639585

 Al 
  0.7404114  0.2485694  0.4971190

 Al 
  0.5051631  0.5043723  0.5054985

 Al 
  0.4945919  0.7442763  0.7615279

 Al 
  0.7482117  0.5073189  0.7373311

 Al 
  0.7453740  0.7534318  0.5011856

