32 
charge = 0 
 Al 
  0.0138285  0.9955460  0.9987736

 Al 
  0.0124152  0.2420140  0.2403284

 Al 
  0.2508168  0.0126726  0.2592545

 Al 
  0.2540270  0.2609079  0.9976573

 Al 
  0.5012475  0.9951859  0.0033550

 Al 
  0.5008935  0.2542288  0.2498800

 Al 
  0.7445547  0.9929434  0.2217415

 Al 
  0.7380340  0.2365168  0.9965856

 Al 
  0.9971598  0.4987736  0.9990223

 Al 
  0.0271397  0.7508428  0.2337248

 Al 
  0.2486350  0.4889523  0.2505260

 Al 
  0.2673729  0.7311779  0.0024776

 Al 
  0.9807769  0.0134795  0.4885142

 Al 
  0.0038897  0.2607767  0.7461400

 Al 
  0.2406502  0.9888916  0.7539218

 Al 
  0.2465930  0.2726994  0.4946550

 Al 
  0.0247612  0.5099599  0.4846678

 Al 
  0.9878768  0.7363819  0.7479729

 Al 
  0.2400512  0.5032771  0.7598436

 Al 
  0.2535246  0.7536595  0.5195250

 Al 
  0.5015977  0.5020148  0.9976066

 Al 
  0.5008019  0.7423209  0.2570739

 Al 
  0.7487562  0.5036657  0.2725496

 Al 
  0.7450993  0.7259368  0.0100861

 Al 
  0.4966747  0.0052658  0.5002289

 Al 
  0.4954421  0.2677578  0.7455658

 Al 
  0.7420586  0.9919360  0.7639003

 Al 
  0.7431563  0.2478590  0.4989691

 Al 
  0.5005359  0.5063277  0.5072484

 Al 
  0.4954124  0.7471165  0.7592817

 Al 
  0.7467638  0.5052163  0.7386813

 Al 
  0.7494518  0.7556940  0.5002401

