32 
charge = 0 
 Al 
  0.0123793  0.9962452  0.0026818

 Al 
  0.0105366  0.2425078  0.2391713

 Al 
  0.2499418  0.0140698  0.2602285

 Al 
  0.2518984  0.2632951  0.9973590

 Al 
  0.4977315  0.9970286  0.0015309

 Al 
  0.5031298  0.2514158  0.2501337

 Al 
  0.7461660  0.9947317  0.2250198

 Al 
  0.7383360  0.2376442  0.9943307

 Al 
  0.9977291  0.4977155  0.9983380

 Al 
  0.0255990  0.7508403  0.2333238

 Al 
  0.2478207  0.4870724  0.2513044

 Al 
  0.2659806  0.7294119  0.0002129

 Al 
  0.9843857  0.0156317  0.4922331

 Al 
  0.0041297  0.2612779  0.7511447

 Al 
  0.2431588  0.9889535  0.7525506

 Al 
  0.2519863  0.2713962  0.4943146

 Al 
  0.0228268  0.5146985  0.4820925

 Al 
  0.9854215  0.7373051  0.7458678

 Al 
  0.2410079  0.5059514  0.7571964

 Al 
  0.2533451  0.7533625  0.5229890

 Al 
  0.5049540  0.5001139  0.9957044

 Al 
  0.4987736  0.7415660  0.2588647

 Al 
  0.7499765  0.5017462  0.2703703

 Al 
  0.7475348  0.7250483  0.0113262

 Al 
  0.4948703  0.0019306  0.5010965

 Al 
  0.4955881  0.2679991  0.7443914

 Al 
  0.7412851  0.9938567  0.7639275

 Al 
  0.7399176  0.2487142  0.4967774

 Al 
  0.5059948  0.5040221  0.5051445

 Al 
  0.4944891  0.7437602  0.7619128

 Al 
  0.7484926  0.5076605  0.7371108

 Al 
  0.7446117  0.7530271  0.5013514

