32 
charge = 0 
 Al 
  0.0143000  0.9953096  0.9972947

 Al 
  0.0128310  0.2420004  0.2407245

 Al 
  0.2512499  0.0120130  0.2588523

 Al 
  0.2548042  0.2598894  0.9977476

 Al 
  0.5022796  0.9945275  0.0039812

 Al 
  0.5001188  0.2552349  0.2497649

 Al 
  0.7440696  0.9922801  0.2208529

 Al 
  0.7380637  0.2363769  0.9973801

 Al 
  0.9969445  0.4990854  0.9993466

 Al 
  0.0275420  0.7508118  0.2340552

 Al 
  0.2490842  0.4898408  0.2500619

 Al 
  0.2676872  0.7320058  0.0033488

 Al 
  0.9796248  0.0125538  0.4872741

 Al 
  0.0037176  0.2605057  0.7443382

 Al 
  0.2398037  0.9890401  0.7544107

 Al 
  0.2447478  0.2728862  0.4949495

 Al 
  0.0251052  0.5082731  0.4857161

 Al 
  0.9888879  0.7362098  0.7487624

 Al 
  0.2397790  0.5023142  0.7607062

 Al 
  0.2535654  0.7537808  0.5180498

 Al 
  0.5004888  0.5025358  0.9984023

 Al 
  0.5014529  0.7426588  0.2564180

 Al 
  0.7484122  0.5042733  0.2731276

 Al 
  0.7442787  0.7263675  0.0095862

 Al 
  0.4973467  0.0064489  0.4999505

 Al 
  0.4953641  0.2674583  0.7460410

 Al 
  0.7423741  0.9912492  0.7637728

 Al 
  0.7443592  0.2476066  0.4997636

 Al 
  0.4984865  0.5071977  0.5079390

 Al 
  0.4958727  0.7483652  0.7582335

 Al 
  0.7461673  0.5042077  0.7393322

 Al 
  0.7511905  0.7566890  0.4998144

