32 
charge = 0 
 Al 
  0.0158532  0.9944013  0.9911316

 Al 
  0.0133360  0.2426823  0.2420784

 Al 
  0.2535506  0.0086011  0.2569922

 Al 
  0.2578969  0.2549156  0.9981078

 Al 
  0.5052510  0.9918828  0.0062274

 Al 
  0.4971536  0.2593498  0.2493354

 Al 
  0.7427912  0.9894980  0.2186897

 Al 
  0.7388954  0.2371553  0.0005458

 Al 
  0.9960039  0.4999109  0.0010891

 Al 
  0.0283191  0.7505928  0.2362915

 Al 
  0.2515234  0.4943790  0.2473986

 Al 
  0.2681018  0.7364351  0.0069724

 Al 
  0.9758168  0.0079575  0.4825640

 Al 
  0.0025494  0.2589352  0.7371281

 Al 
  0.2367903  0.9903470  0.7560950

 Al 
  0.2380018  0.2720497  0.4968653

 Al 
  0.0246399  0.5017437  0.4905450

 Al 
  0.9936142  0.7361467  0.7521100

 Al 
  0.2390773  0.4985149  0.7639238

 Al 
  0.2535518  0.7544763  0.5110217

 Al 
  0.4964903  0.5039095  0.0020742

 Al 
  0.5037808  0.7443976  0.2538612

 Al 
  0.7474407  0.5063128  0.2746102

 Al 
  0.7412665  0.7285493  0.0072051

 Al 
  0.5001040  0.0112259  0.4989679

 Al 
  0.4948988  0.2652109  0.7481635

 Al 
  0.7439062  0.9885018  0.7627122

 Al 
  0.7493020  0.2470509  0.5029813

 Al 
  0.4898136  0.5108819  0.5105267

 Al 
  0.4982130  0.7536483  0.7534528

 Al 
  0.7438270  0.4995916  0.7423444

 Al 
  0.7582422  0.7607408  0.4979890

