32 
charge = 0 
 Al 
  0.0151700  0.9948431  0.9941958

 Al 
  0.0133162  0.2422034  0.2414670

 Al 
  0.2523056  0.0104314  0.2579575

 Al 
  0.2563883  0.2575504  0.9979258

 Al 
  0.5040283  0.9931860  0.0051866

 Al 
  0.4985855  0.2573041  0.2495297

 Al 
  0.7432677  0.9908928  0.2194656

 Al 
  0.7383397  0.2364982  0.9989877

 Al 
  0.9964841  0.4995990  0.0001386

 Al 
  0.0281149  0.7507141  0.2350069

 Al 
  0.2502067  0.4919558  0.2488614

 Al 
  0.2680672  0.7340194  0.0051767

 Al 
  0.9775110  0.0104042  0.4848423

 Al 
  0.0032251  0.2598139  0.7406663

 Al 
  0.2381825  0.9895661  0.7553450

 Al 
  0.2411688  0.2728046  0.4957824

 Al 
  0.0252562  0.5048921  0.4880427

 Al 
  0.9911477  0.7360613  0.7504270

 Al 
  0.2393384  0.5003663  0.7623769

 Al 
  0.2536013  0.7540778  0.5147022

 Al 
  0.4983677  0.5033748  0.0001770

 Al 
  0.5026855  0.7434595  0.2550938

 Al 
  0.7478392  0.5053896  0.2740421

 Al 
  0.7426872  0.7273885  0.0084600

 Al 
  0.4987389  0.0088609  0.4994258

 Al 
  0.4951611  0.2665314  0.7470794

 Al 
  0.7430907  0.9898507  0.7633446

 Al 
  0.7468516  0.2472167  0.5013935

 Al 
  0.4941736  0.5090342  0.5092805

 Al 
  0.4969729  0.7509888  0.7559279

 Al 
  0.7449718  0.5019751  0.7407802

 Al 
  0.7547535  0.7587483  0.4989109

