32 
charge = 0 
 Al 
  0.0149658  0.9949582  0.9949780

 Al 
  0.0132394  0.2421242  0.2412900

 Al 
  0.2520197  0.0108559  0.2581902

 Al 
  0.2559948  0.2581692  0.9978813

 Al 
  0.5036360  0.9935214  0.0048958

 Al 
  0.4989629  0.2567843  0.2495867

 Al 
  0.7434422  0.9912442  0.2197589

 Al 
  0.7382444  0.2364165  0.9985867

 Al 
  0.9966017  0.4994876  0.9999233

 Al 
  0.0280036  0.7507425  0.2347347

 Al 
  0.2499035  0.4913903  0.2491919

 Al 
  0.2680041  0.7334736  0.0047164

 Al 
  0.9780085  0.0109747  0.4854413

 Al 
  0.0033662  0.2600045  0.7415833

 Al 
  0.2385723  0.9894077  0.7551223

 Al 
  0.2420375  0.2728850  0.4955460

 Al 
  0.0252896  0.5057274  0.4874375

 Al 
  0.9905574  0.7360749  0.7500050

 Al 
  0.2394325  0.5008502  0.7619685

 Al 
  0.2535988  0.7539961  0.5155809

 Al 
  0.4988812  0.5031929  0.9997154

 Al 
  0.5023885  0.7432454  0.2554218

 Al 
  0.7479667  0.5051260  0.2738454

 Al 
  0.7430734  0.7271162  0.0087558

 Al 
  0.4983887  0.0082570  0.4995520

 Al 
  0.4952181  0.2668024  0.7468120

 Al 
  0.7429013  0.9901997  0.7634721

 Al 
  0.7462242  0.2472959  0.5009851

 Al 
  0.4952688  0.5085676  0.5089525

 Al 
  0.4966796  0.7503230  0.7565257

 Al 
  0.7452688  0.5025543  0.7404027

 Al 
  0.7538612  0.7582323  0.4991411

