32 
charge = 0 
 Al 
  0.0159819  0.9942973  0.9904039

 Al 
  0.0132729  0.2428382  0.2422021

 Al 
  0.2538785  0.0081209  0.2567472

 Al 
  0.2582471  0.2542288  0.9981560

 Al 
  0.5054638  0.9915759  0.0064502

 Al 
  0.4968232  0.2598436  0.2493008

 Al 
  0.7427355  0.9891602  0.2185981

 Al 
  0.7390736  0.2373979  0.0009183

 Al 
  0.9958839  0.4999530  0.0013452

 Al 
  0.0283055  0.7505619  0.2366541

 Al 
  0.2518638  0.4950089  0.2470100

 Al 
  0.2680573  0.7370885  0.0073944

 Al 
  0.9754789  0.0073189  0.4820294

 Al 
  0.0023551  0.2586902  0.7362965

 Al 
  0.2364957  0.9905735  0.7562348

 Al 
  0.2373088  0.2717539  0.4971598

 Al 
  0.0243676  0.5010259  0.4911787

 Al 
  0.9942453  0.7361999  0.7525209

 Al 
  0.2390439  0.4980830  0.7642839

 Al 
  0.2535221  0.7545951  0.5100799

 Al 
  0.4960732  0.5039936  0.0025481

 Al 
  0.5040283  0.7446488  0.2535815

 Al 
  0.7473689  0.5065059  0.2746968

 Al 
  0.7409509  0.7288513  0.0068771

 Al 
  0.5004294  0.0117940  0.4988664

 Al 
  0.4948258  0.2648285  0.7484320

 Al 
  0.7441228  0.9881850  0.7625278

 Al 
  0.7498861  0.2470497  0.5033575

 Al 
  0.4887506  0.5113274  0.5108175

 Al 
  0.4985285  0.7543005  0.7528254

 Al 
  0.7435548  0.4989939  0.7427417

 Al 
  0.7590750  0.7612061  0.4977637

