32 
charge = 0 
 Al 
  0.0160933  0.9941958  0.9896973

 Al 
  0.0131838  0.2430065  0.2423135

 Al 
  0.2542102  0.0076370  0.2565022

 Al 
  0.2585825  0.2535345  0.9982055

 Al 
  0.5056408  0.9912777  0.0066544

 Al 
  0.4965051  0.2603262  0.2492711

 Al 
  0.7427058  0.9888298  0.2185473

 Al 
  0.7392654  0.2376689  0.0012809

 Al 
  0.9957638  0.4999790  0.0016088

 Al 
  0.0282659  0.7505334  0.2370279

 Al 
  0.2522066  0.4956425  0.2466177

 Al 
  0.2679929  0.7377580  0.0078016

 Al 
  0.9751794  0.0066754  0.4815121

 Al 
  0.0021534  0.2584352  0.7354933

 Al 
  0.2362259  0.9908086  0.7563524

 Al 
  0.2366616  0.2714148  0.4974605

 Al 
  0.0240496  0.5003428  0.4918098

 Al 
  0.9948777  0.7362618  0.7529231

 Al 
  0.2390241  0.4976672  0.7646329

 Al 
  0.2534862  0.7547213  0.5091382

 Al 
  0.4956809  0.5040592  0.0030172

 Al 
  0.5042634  0.7449037  0.2533179

 Al 
  0.7473083  0.5066828  0.2747612

 Al 
  0.7406552  0.7291545  0.0065467

 Al 
  0.5007450  0.0123496  0.4987699

 Al 
  0.4947503  0.2644300  0.7486956

 Al 
  0.7443431  0.9878806  0.7623360

 Al 
  0.7504542  0.2470657  0.5037226

 Al 
  0.4877061  0.5117630  0.5110997

 Al 
  0.4988429  0.7549416  0.7521991

 Al 
  0.7432899  0.4983998  0.7431390

 Al 
  0.7598856  0.7616541  0.4975422

