32 
charge = 0 
 Al 
  0.0163284  0.9938246  0.9871479

 Al 
  0.0126046  0.2437726  0.2426278

 Al 
  0.2555430  0.0056891  0.2555406

 Al 
  0.2597594  0.2507240  0.9984209

 Al 
  0.5059836  0.9902059  0.0072756

 Al 
  0.4953777  0.2621368  0.2492339

 Al 
  0.7428667  0.9876021  0.2187416

 Al 
  0.7401589  0.2390104  0.0026335

 Al 
  0.9952849  0.4999295  0.0027078

 Al 
  0.0278439  0.7504331  0.2386256

 Al 
  0.2535382  0.4981622  0.2450572

 Al 
  0.2675363  0.7405648  0.0092458

 Al 
  0.9743961  0.0040976  0.4796161

 Al 
  0.0012660  0.2573202  0.7326197

 Al 
  0.2354215  0.9918259  0.7565677

 Al 
  0.2345725  0.2696513  0.4986869

 Al 
  0.0223615  0.4979976  0.4942775

 Al 
  0.9973887  0.7366034  0.7544379

 Al 
  0.2390736  0.4961747  0.7659076

 Al 
  0.2532597  0.7553178  0.5054168

 Al 
  0.4943679  0.5041359  0.0048141

 Al 
  0.5050926  0.7459643  0.2524293

 Al 
  0.7471734  0.5072274  0.2748069

 Al 
  0.7396713  0.7303624  0.0051916

 Al 
  0.5018972  0.0144275  0.4984394

 Al 
  0.4944310  0.2626838  0.7496968

 Al 
  0.7452676  0.9867903  0.7615007

 Al 
  0.7525333  0.2472947  0.5050517

 Al 
  0.4837681  0.5133682  0.5121368

 Al 
  0.5000569  0.7573858  0.7497290

 Al 
  0.7423085  0.4961004  0.7447069

 Al 
  0.7628694  0.7632159  0.4967056

