32 
charge = 0 
 Al 
  0.0161848  0.9940981  0.9890166

 Al 
  0.0130711  0.2431847  0.2424125

 Al 
  0.2545431  0.0071494  0.2562584

 Al 
  0.2589018  0.2528353  0.9982563

 Al 
  0.5057794  0.9909905  0.0068388

 Al 
  0.4962019  0.2607990  0.2492500

 Al 
  0.7427046  0.9885080  0.2185374

 Al 
  0.7394708  0.2379684  0.0016348

 Al 
  0.9956438  0.4999901  0.0018774

 Al 
  0.0282003  0.7505049  0.2374140

 Al 
  0.2525469  0.4962774  0.2462242

 Al 
  0.2679075  0.7384424  0.0081914

 Al 
  0.9749208  0.0060294  0.4810121

 Al 
  0.0019417  0.2581704  0.7347223

 Al 
  0.2359821  0.9910524  0.7564465

 Al 
  0.2360626  0.2710336  0.4977662

 Al 
  0.0236894  0.4996968  0.4924373

 Al 
  0.9955089  0.7363348  0.7533179

 Al 
  0.2390166  0.4972675  0.7649696

 Al 
  0.2534417  0.7548574  0.5081989

 Al 
  0.4953146  0.5041050  0.0034813

 Al 
  0.5044886  0.7451636  0.2530692

 Al 
  0.7472588  0.5068437  0.2748032

 Al 
  0.7403780  0.7294577  0.0062113

 Al 
  0.5010495  0.0128917  0.4986795

 Al 
  0.4946735  0.2640142  0.7489543

 Al 
  0.7445683  0.9875872  0.7621368

 Al 
  0.7510037  0.2470992  0.5040765

 Al 
  0.4866838  0.5121863  0.5113732

 Al 
  0.4991547  0.7555727  0.7515742

 Al 
  0.7430338  0.4978120  0.7435337

 Al 
  0.7606727  0.7620798  0.4973256

