32 
charge = 0 
 Al 
  0.0158495  0.9933011  0.9839191

 Al 
  0.0108955  0.2453542  0.2426996

 Al 
  0.2577756  0.0023835  0.2539429

 Al 
  0.2611170  0.2457972  0.9988775

 Al 
  0.5053636  0.9888619  0.0075875

 Al 
  0.4939595  0.2648025  0.2495458

 Al 
  0.7442094  0.9859029  0.2204520

 Al 
  0.7421217  0.2421477  0.0046359

 Al 
  0.9944582  0.4992748  0.0047510

 Al 
  0.0260792  0.7503552  0.2416502

 Al 
  0.2555294  0.5022982  0.2425932

 Al 
  0.2660598  0.7458727  0.0109376

 Al 
  0.9746968  0.9998280  0.4769541

 Al 
  0.9994753  0.2549725  0.7290790

 Al 
  0.2351493  0.9938060  0.7558079

 Al 
  0.2328907  0.2651280  0.5007425

 Al 
  0.0180251  0.4954817  0.4982600

 Al 
  0.0016175  0.7374375  0.7566482

 Al 
  0.2396317  0.4941958  0.7677442

 Al 
  0.2525110  0.7567633  0.4992785

 Al 
  0.4930560  0.5036644  0.0074823

 Al 
  0.5061631  0.7479333  0.2516002

 Al 
  0.7472774  0.5075962  0.2741535

 Al 
  0.7387543  0.7324093  0.0027004

 Al 
  0.5034738  0.0174905  0.4980484

 Al 
  0.4938233  0.2591567  0.7511905

 Al 
  0.7470843  0.9854661  0.7598597

 Al 
  0.7553413  0.2482587  0.5067781

 Al 
  0.4778971  0.5155128  0.5136144

 Al 
  0.5018811  0.7611492  0.7456227

 Al 
  0.7408693  0.4925090  0.7473615

 Al 
  0.7669657  0.7648891  0.4954804

