32 
charge = 0 
 Al 
  0.0141317  0.9929298  0.9822756

 Al 
  0.0085058  0.2471251  0.2422702

 Al 
  0.2597990  0.9992575  0.2523761

 Al 
  0.2615539  0.2408185  0.9994641

 Al 
  0.5035605  0.9882333  0.0069229

 Al 
  0.4931649  0.2669224  0.2504703

 Al 
  0.7468479  0.9848287  0.2236436

 Al 
  0.7445560  0.2460967  0.0063289

 Al 
  0.9936092  0.4979333  0.0069242

 Al 
  0.0229209  0.7503911  0.2448530

 Al 
  0.2568821  0.5060047  0.2406861

 Al 
  0.2637778  0.7517549  0.0114970

 Al 
  0.9772697  0.9960905  0.4750272

 Al 
  0.9974246  0.2519120  0.7275568

 Al 
  0.2363658  0.9960089  0.7534268

 Al 
  0.2335429  0.2589055  0.5025494

 Al 
  0.0121838  0.4948629  0.5018588

 Al 
  0.0057151  0.7384882  0.7583102

 Al 
  0.2407467  0.4928159  0.7692849

 Al 
  0.2512388  0.7588424  0.4935659

 Al 
  0.4928865  0.5026088  0.0094488

 Al 
  0.5069167  0.7500953  0.2517177

 Al 
  0.7477068  0.5073375  0.2726684

 Al 
  0.7388335  0.7344377  0.9999022

 Al 
  0.5045914  0.0199347  0.4978145

 Al 
  0.4931649  0.2550097  0.7523922

 Al 
  0.7493280  0.9849215  0.7580157

 Al 
  0.7570999  0.2497933  0.5076692

 Al 
  0.4731325  0.5167219  0.5147394

 Al 
  0.5032276  0.7644139  0.7416972

 Al 
  0.7396775  0.4894906  0.7500545

 Al 
  0.7696401  0.7650104  0.4945869

