32 
charge = 0 
 Al 
  0.0159918  0.9933667  0.9842817

 Al 
  0.0111851  0.2451141  0.2427231

 Al 
  0.2574687  0.0028452  0.2541669

 Al 
  0.2609797  0.2465014  0.9988058

 Al 
  0.5055344  0.9890104  0.0076036

 Al 
  0.4941203  0.2644572  0.2494666

 Al 
  0.7439372  0.9861084  0.2201104

 Al 
  0.7418123  0.2416465  0.0043735

 Al 
  0.9945770  0.4994122  0.0044515

 Al 
  0.0264133  0.7503577  0.2412059

 Al 
  0.2552794  0.5017351  0.2429137

 Al 
  0.2663197  0.7450832  0.0107643

 Al 
  0.9745198  0.0004096  0.4772870

 Al 
  0.9997475  0.2553438  0.7294639

 Al 
  0.2350973  0.9935102  0.7560108

 Al 
  0.2329810  0.2658804  0.5004616

 Al 
  0.0187404  0.4957193  0.4977179

 Al 
  0.0010259  0.7373038  0.7563685

 Al 
  0.2395166  0.4944359  0.7675053

 Al 
  0.2526484  0.7565207  0.5001250

 Al 
  0.4931699  0.5037721  0.0071432

 Al 
  0.5060344  0.7476424  0.2516608

 Al 
  0.7472402  0.5075850  0.2742995

 Al 
  0.7388236  0.7321209  0.0030692

 Al 
  0.5032808  0.0170945  0.4980917

 Al 
  0.4939137  0.2596963  0.7509975

 Al 
  0.7468034  0.9856084  0.7601059

 Al 
  0.7550047  0.2480818  0.5065801

 Al 
  0.4786595  0.5152629  0.5134263

 Al 
  0.5016484  0.7606480  0.7461945

 Al 
  0.7410574  0.4929867  0.7469853

 Al 
  0.7664695  0.7647406  0.4956351

