32 
charge = 0 
 Al 
  0.0144572  0.9929719  0.9824167

 Al 
  0.0088845  0.2468628  0.2423568

 Al 
  0.2595230  0.9996931  0.2526026

 Al 
  0.2615502  0.2415388  0.9993701

 Al 
  0.5038748  0.9882778  0.0070764

 Al 
  0.4932441  0.2666489  0.2502945

 Al 
  0.7463950  0.9849401  0.2231053

 Al 
  0.7441773  0.2454878  0.0060987

 Al 
  0.9937330  0.4981659  0.0066061

 Al 
  0.0234642  0.7503812  0.2443877

 Al 
  0.2567336  0.5054997  0.2409200

 Al 
  0.2641515  0.7508750  0.0114883

 Al 
  0.9767536  0.9965843  0.4752587

 Al 
  0.9977315  0.2524046  0.7276459

 Al 
  0.2361009  0.9956797  0.7538723

 Al 
  0.2333177  0.2598943  0.5023081

 Al 
  0.0131033  0.4948443  0.5013613

 Al 
  0.0051309  0.7383248  0.7581048

 Al 
  0.2405524  0.4929867  0.7690746

 Al 
  0.2514554  0.7585021  0.4943629

 Al 
  0.4928469  0.5027870  0.0092124

 Al 
  0.5068227  0.7497711  0.2516422

 Al 
  0.7476288  0.5074093  0.2729308

 Al 
  0.7387617  0.7341431  0.0003292

 Al 
  0.5044527  0.0196178  0.4978429

 Al 
  0.4932615  0.2556458  0.7522350

 Al 
  0.7489716  0.9849500  0.7582929

 Al 
  0.7569130  0.2495458  0.5075974

 Al 
  0.4737575  0.5166093  0.5145983

 Al 
  0.5030679  0.7639708  0.7422541

 Al 
  0.7398384  0.4898879  0.7496584

 Al 
  0.7693443  0.7650958  0.4946933

