32 
charge = 0 
 Al 
  0.0137790  0.9928914  0.9821667

 Al 
  0.0081172  0.2473900  0.2421774

 Al 
  0.2600700  0.9988280  0.2521459

 Al 
  0.2615378  0.2400945  0.9995619

 Al 
  0.5032300  0.9882048  0.0067484

 Al 
  0.4930969  0.2671836  0.2506621

 Al 
  0.7473244  0.9847310  0.2242080

 Al 
  0.7449433  0.2467180  0.0065578

 Al 
  0.9934855  0.4976870  0.0072435

 Al 
  0.0223454  0.7504010  0.2453171

 Al 
  0.2570133  0.5065009  0.2404671

 Al 
  0.2633867  0.7526484  0.0114796

 Al 
  0.9778365  0.9956116  0.4748119

 Al 
  0.9971128  0.2514009  0.7275123

 Al 
  0.2366616  0.9963430  0.7529479

 Al 
  0.2338102  0.2578833  0.5027833

 Al 
  0.0112371  0.4949161  0.5023514

 Al 
  0.0062992  0.7386540  0.7585058

 Al 
  0.2409509  0.4926551  0.7694941

 Al 
  0.2510111  0.7591976  0.4927763

 Al 
  0.4929471  0.5024231  0.0096678

 Al 
  0.5070083  0.7504270  0.2518118

 Al 
  0.7477897  0.5072558  0.2723900

 Al 
  0.7389263  0.7347359  0.9994641

 Al 
  0.5047225  0.0202403  0.4977860

 Al 
  0.4930684  0.2543575  0.7525469

 Al 
  0.7496968  0.9849116  0.7577335

 Al 
  0.7572657  0.2500495  0.5077212

 Al 
  0.4725236  0.5168123  0.5148743

 Al 
  0.5033761  0.7648520  0.7411428

 Al 
  0.7395216  0.4891045  0.7504542

 Al 
  0.7699062  0.7648904  0.4944891

