32 
charge = 0 
 Al 
  0.0116120  0.9927788  0.9820863

 Al 
  0.0060319  0.2487278  0.2416328

 Al 
  0.2613497  0.9967947  0.2509653

 Al 
  0.2611418  0.2364549  0.0001238

 Al 
  0.5014046  0.9883112  0.0055963

 Al 
  0.4929174  0.2683172  0.2518563

 Al 
  0.7500334  0.9844971  0.2273650

 Al 
  0.7470199  0.2499691  0.0076630

 Al 
  0.9928754  0.4962824  0.0088535

 Al 
  0.0189805  0.7504393  0.2476016

 Al 
  0.2574068  0.5088449  0.2395822

 Al 
  0.2612222  0.7572546  0.0110143

 Al 
  0.9814353  0.9934904  0.4739840

 Al 
  0.9955151  0.2485409  0.7279788

 Al 
  0.2385748  0.9980645  0.7500446

 Al 
  0.2357222  0.2523600  0.5038327

 Al 
  0.0061717  0.4956512  0.5047473

 Al 
  0.0092062  0.7395389  0.7593250

 Al 
  0.2421279  0.4919521  0.7705213

 Al 
  0.2497178  0.7611690  0.4889572

 Al 
  0.4935275  0.5014170  0.0105168

 Al 
  0.5074142  0.7521620  0.2525605

 Al 
  0.7482736  0.5066989  0.2707613

 Al 
  0.7396936  0.7362804  0.9971276

 Al 
  0.5053116  0.0215893  0.4976264

 Al 
  0.4925981  0.2508861  0.7532672

 Al 
  0.7517462  0.9851294  0.7562497

 Al 
  0.7577484  0.2514145  0.5076531

 Al 
  0.4697453  0.5169360  0.5154473

 Al 
  0.5039293  0.7669261  0.7384003

 Al 
  0.7387753  0.4873682  0.7525246

 Al 
  0.7707762  0.7637530  0.4941352

