32 
charge = 0 
 Al 
  0.0105725  0.9927776  0.9822657

 Al 
  0.0051544  0.2492562  0.2414014

 Al 
  0.2618187  0.9960633  0.2504826

 Al 
  0.2608349  0.2350156  0.0003849

 Al 
  0.5006324  0.9884758  0.0050134

 Al 
  0.4929174  0.2686736  0.2524392

 Al 
  0.7512376  0.9845354  0.2287523

 Al 
  0.7478949  0.2512970  0.0080862

 Al 
  0.9926452  0.4956574  0.0094834

 Al 
  0.0174236  0.7504393  0.2484605

 Al 
  0.2574316  0.5097050  0.2393347

 Al 
  0.2602767  0.7591146  0.0106492

 Al 
  0.9832088  0.9927961  0.4737872

 Al 
  0.9948740  0.2472736  0.7284887

 Al 
  0.2395203  0.9987587  0.7486746

 Al 
  0.2367160  0.2500136  0.5041830

 Al 
  0.0040406  0.4961400  0.5056680

 Al 
  0.0103460  0.7399089  0.7595738

 Al 
  0.2426588  0.4917182  0.7709235

 Al 
  0.2491448  0.7620303  0.4875217

 Al 
  0.4938728  0.5009987  0.0107309

 Al 
  0.5075541  0.7528835  0.2529788

 Al 
  0.7484914  0.5064143  0.2700101

 Al 
  0.7401428  0.7369227  0.9961376

 Al 
  0.5055195  0.0220336  0.4975434

 Al 
  0.4924298  0.2494183  0.7535394

 Al 
  0.7526521  0.9853460  0.7556297

 Al 
  0.7577744  0.2519801  0.5074625

 Al 
  0.4687676  0.5168259  0.5156230

 Al 
  0.5040530  0.7676910  0.7373348

 Al 
  0.7384956  0.4867779  0.7533736

 Al 
  0.7709000  0.7630575  0.4940647

