32 
charge = 0 
 Al 
  0.0082570  0.9928655  0.9829600

 Al 
  0.0033959  0.2502525  0.2409819

 Al 
  0.2626566  0.9948245  0.2495223

 Al 
  0.2599859  0.2322719  0.0009641

 Al 
  0.4991312  0.9890166  0.0036892

 Al 
  0.4930288  0.2691921  0.2537486

 Al 
  0.7537461  0.9848646  0.2316333

 Al 
  0.7496510  0.2538736  0.0088820

 Al 
  0.9922454  0.4943703  0.0106579

 Al 
  0.0140290  0.7503812  0.2499851

 Al 
  0.2572472  0.5112507  0.2390241

 Al 
  0.2583214  0.7627011  0.0096357

 Al 
  0.9871962  0.9917356  0.4736610

 Al 
  0.9936464  0.2446117  0.7300220

 Al 
  0.2416328  0.0000978  0.7456883

 Al 
  0.2389609  0.2452799  0.5047238

 Al 
  0.9997748  0.4973566  0.5074142

 Al 
  0.0125192  0.7406539  0.7599228

 Al 
  0.2437738  0.4913234  0.7717031

 Al 
  0.2479716  0.7637939  0.4849129

 Al 
  0.4947057  0.5001844  0.0109314

 Al 
  0.5078016  0.7543265  0.2539775

 Al 
  0.7489481  0.5057670  0.2683865

 Al 
  0.7412579  0.7382370  0.9941228

 Al 
  0.5059106  0.0227179  0.4973194

 Al 
  0.4921613  0.2464408  0.7540679

 Al 
  0.7545666  0.9859908  0.7543624

 Al 
  0.7575442  0.2530852  0.5067930

 Al 
  0.4670858  0.5163395  0.5158606

 Al 
  0.5041223  0.7690634  0.7353126

 Al 
  0.7379758  0.4858113  0.7550629

 Al 
  0.7707490  0.7613225  0.4940696

