32 
charge = 0 
 Al 
  0.0057386  0.9930758  0.9840367

 Al 
  0.0017239  0.2511113  0.2407047

 Al 
  0.2633347  0.9939743  0.2486102

 Al 
  0.2588708  0.2298512  0.0016039

 Al 
  0.4978392  0.9898149  0.0022313

 Al 
  0.4932701  0.2694273  0.2551792

 Al 
  0.7562336  0.9855366  0.2345020

 Al 
  0.7513106  0.2561804  0.0095899

 Al 
  0.9919707  0.4931340  0.0116368

 Al 
  0.0104153  0.7502190  0.2511361

 Al 
  0.2567658  0.5125179  0.2389560

 Al 
  0.2563821  0.7658866  0.0083016

 Al 
  0.9915289  0.9911564  0.4739196

 Al 
  0.9925486  0.2419249  0.7321296

 Al 
  0.2439050  0.0012772  0.7425585

 Al 
  0.2413569  0.2407678  0.5050134

 Al 
  0.9957366  0.4987538  0.5089897

 Al 
  0.0144584  0.7413717  0.7600639

 Al 
  0.2448913  0.4910190  0.7724296

 Al 
  0.2468492  0.7654893  0.4827744

 Al 
  0.4956401  0.4994555  0.0108435

 Al 
  0.5080145  0.7557002  0.2551161

 Al 
  0.7493973  0.5050592  0.2666811

 Al 
  0.7426056  0.7395698  0.9921675

 Al 
  0.5062881  0.0230843  0.4970001

 Al 
  0.4920313  0.2435449  0.7545852

 Al 
  0.7565244  0.9868756  0.7530927

 Al 
  0.7569700  0.2540802  0.5057609

 Al 
  0.4658185  0.5155326  0.5159299

 Al 
  0.5039627  0.7701785  0.7335082

 Al 
  0.7375278  0.4851579  0.7566618

 Al 
  0.7700906  0.7592718  0.4942862

