32 
charge = 0 
 Al 
  0.0044416  0.9932256  0.9846914

 Al 
  0.0009504  0.2514715  0.2406465

 Al 
  0.2636070  0.9937157  0.2481870

 Al 
  0.2582335  0.2288030  0.0019355

 Al 
  0.4973170  0.9902975  0.0014826

 Al 
  0.4934335  0.2694396  0.2559094

 Al 
  0.7574179  0.9859970  0.2358831

 Al 
  0.7520692  0.2571816  0.0099067

 Al 
  0.9918940  0.4925684  0.0120303

 Al 
  0.0085837  0.7500941  0.2515432

 Al 
  0.2564254  0.5130390  0.2390043

 Al 
  0.2554490  0.7672652  0.0075417

 Al 
  0.9937317  0.9910487  0.4741931

 Al 
  0.9920660  0.2406242  0.7333436

 Al 
  0.2450522  0.0017771  0.7410042

 Al 
  0.2425474  0.2386813  0.5050567

 Al 
  0.9938765  0.4994691  0.5097025

 Al 
  0.0153148  0.7417133  0.7600564

 Al 
  0.2454260  0.4908965  0.7727662

 Al 
  0.2463405  0.7662678  0.4819130

 Al 
  0.4961178  0.4991399  0.0107049

 Al 
  0.5081135  0.7563413  0.2557089

 Al 
  0.7496052  0.5046978  0.2658235

 Al 
  0.7433432  0.7402393  0.9912455

 Al 
  0.5064799  0.0231387  0.4968034

 Al 
  0.4920289  0.2421712  0.7548426

 Al 
  0.7574860  0.9873868  0.7524627

 Al 
  0.7565739  0.2545146  0.5051285

 Al 
  0.4653470  0.5150302  0.5158977

 Al 
  0.5038055  0.7706277  0.7327063

 Al 
  0.7373335  0.4849512  0.7574019

 Al 
  0.7695894  0.7581865  0.4944768

