32 
charge = 0 
 Al 
  0.0088597  0.9928320  0.9827471

 Al 
  0.0038315  0.2500136  0.2410772

 Al 
  0.2624598  0.9951017  0.2497587

 Al 
  0.2602260  0.2329353  0.0008131

 Al 
  0.4994938  0.9888557  0.0040369

 Al 
  0.4929867  0.2690882  0.2534058

 Al 
  0.7531137  0.9847495  0.2309069

 Al 
  0.7492166  0.2532474  0.0086902

 Al 
  0.9923358  0.4946921  0.0103782

 Al 
  0.0149064  0.7504034  0.2496337

 Al 
  0.2573227  0.5108881  0.2390785

 Al 
  0.2588139  0.7618323  0.0099215

 Al 
  0.9861542  0.9919571  0.4736572

 Al 
  0.9939434  0.2452861  0.7295790

 Al 
  0.2410834  0.9997735  0.7464569

 Al 
  0.2383768  0.2464556  0.5046099

 Al 
  0.0008304  0.4970286  0.5069922

 Al 
  0.0119932  0.7404683  0.7598547

 Al 
  0.2434917  0.4914126  0.7715125

 Al 
  0.2482637  0.7633545  0.4855255

 Al 
  0.4944842  0.5003812  0.0109091

 Al 
  0.5077447  0.7539689  0.2537102

 Al 
  0.7488330  0.5059366  0.2688035

 Al 
  0.7409534  0.7379065  0.9946265

 Al 
  0.5058153  0.0225744  0.4973838

 Al 
  0.4922182  0.2471833  0.7539367

 Al 
  0.7540790  0.9858052  0.7546817

 Al 
  0.7576358  0.2528155  0.5069959

 Al 
  0.4674694  0.5164930  0.5158160

 Al 
  0.5041273  0.7687429  0.7358002

 Al 
  0.7381008  0.4860242  0.7546458

 Al 
  0.7708356  0.7617927  0.4940498

