32 
charge = 0 
 Al 
  0.9965522  0.9946055  0.9898953

 Al 
  0.9974840  0.2525420  0.2418271

 Al 
  0.2643433  0.9944990  0.2460757

 Al 
  0.2535679  0.2250384  0.0039231

 Al 
  0.4964507  0.9940052  0.9970831

 Al 
  0.4948493  0.2681885  0.2600230

 Al 
  0.7631689  0.9903606  0.2431303

 Al 
  0.7551693  0.2606121  0.0113509

 Al 
  0.9924880  0.4903000  0.0128360

 Al 
  0.9978664  0.7487624  0.2515890

 Al 
  0.2532251  0.5147517  0.2402418

 Al 
  0.2506200  0.7722526  0.0020803

 Al 
  0.0061804  0.9926229  0.4777437

 Al 
  0.9902579  0.2340565  0.7419237

 Al 
  0.2515767  0.0031694  0.7327471

 Al 
  0.2487785  0.2294342  0.5038835

 Al 
  0.9854512  0.5032375  0.5130674

 Al 
  0.0187379  0.7435919  0.7589562

 Al 
  0.2480348  0.4903854  0.7743441

 Al 
  0.2443790  0.7693493  0.4795864

 Al 
  0.4987860  0.4979704  0.0089859

 Al 
  0.5087879  0.7594463  0.2591060

 Al 
  0.7503836  0.5026335  0.2607606

 Al 
  0.7482142  0.7444075  0.9867890

 Al 
  0.5079612  0.0215757  0.4951116

 Al 
  0.4931068  0.2352594  0.7564180

 Al 
  0.7625551  0.9910190  0.7485756

 Al 
  0.7531657  0.2560764  0.5002413

 Al 
  0.4646193  0.5109821  0.5148285

 Al 
  0.5020049  0.7718937  0.7292844

 Al 
  0.7366368  0.4851703  0.7608076

 Al 
  0.7645946  0.7517994  0.4967848

