32 
charge = 0 
 Al 
  0.9985384  0.9941934  0.9883979

 Al 
  0.9981511  0.2524442  0.2412517

 Al 
  0.2642951  0.9939496  0.2465559

 Al 
  0.2548673  0.2255866  0.0034379

 Al 
  0.4962861  0.9929682  0.9981548

 Al 
  0.4944322  0.2686983  0.2590676

 Al 
  0.7619623  0.9890142  0.2414559

 Al 
  0.7546483  0.2601765  0.0110551

 Al 
  0.9921563  0.4906688  0.0128917

 Al 
  0.0005025  0.7491844  0.2519417

 Al 
  0.2542015  0.5145240  0.2397951

 Al 
  0.2517091  0.7715026  0.0035728

 Al 
  0.0032412  0.9919101  0.4765556

 Al 
  0.9905326  0.2354772  0.7396144

 Al 
  0.2500124  0.0030964  0.7345948

 Al 
  0.2473900  0.2311990  0.5044094

 Al 
  0.9871318  0.5024170  0.5123385

 Al 
  0.0181476  0.7431291  0.7593993

 Al 
  0.2474853  0.4904980  0.7740236

 Al 
  0.2446810  0.7688716  0.4797510

 Al 
  0.4981597  0.4981511  0.0095193

 Al 
  0.5085899  0.7587743  0.2583127

 Al 
  0.7502822  0.5031211  0.2620328

 Al 
  0.7469420  0.7433122  0.9877358

 Al 
  0.5074996  0.0222811  0.4956203

 Al 
  0.4926415  0.2367841  0.7560059

 Al 
  0.7614165  0.9900426  0.7496027

 Al 
  0.7541545  0.2558500  0.5016014

 Al 
  0.4644869  0.5121467  0.5152319

 Al 
  0.5025717  0.7717935  0.7299342

 Al 
  0.7367383  0.4849030  0.7601233

 Al 
  0.7661452  0.7533303  0.4960126

