32 
charge = 0 
 Al 
  0.9998540  0.9939409  0.9874746

 Al 
  0.9986696  0.2523180  0.2409794

 Al 
  0.2642146  0.9937095  0.2468863

 Al 
  0.2556816  0.2260928  0.0031088

 Al 
  0.4963195  0.9923147  0.9988800

 Al 
  0.4941773  0.2689669  0.2583981

 Al 
  0.7610725  0.9882135  0.2403025

 Al 
  0.7542040  0.2597297  0.0108361

 Al 
  0.9920066  0.4909905  0.0128323

 Al 
  0.0022685  0.7494332  0.2520482

 Al 
  0.2547869  0.5143050  0.2395463

 Al 
  0.2524751  0.7708307  0.0045221

 Al 
  0.0012140  0.9915462  0.4758762

 Al 
  0.9907826  0.2365081  0.7381330

 Al 
  0.2489481  0.0029429  0.7359128

 Al 
  0.2464012  0.2325788  0.5046718

 Al 
  0.9884003  0.5018205  0.5118200

 Al 
  0.0176600  0.7428246  0.7596319

 Al 
  0.2470806  0.4905735  0.7737822

 Al 
  0.2449532  0.7684372  0.4800047

 Al 
  0.4977278  0.4983107  0.0098436

 Al 
  0.5084724  0.7582929  0.2577583

 Al 
  0.7501757  0.5034590  0.2628694

 Al 
  0.7461116  0.7426105  0.9884238

 Al 
  0.5072360  0.0226313  0.4959259

 Al 
  0.4924100  0.2378706  0.7557411

 Al 
  0.7606096  0.9894139  0.7502562

 Al 
  0.7547671  0.2556408  0.5024627

 Al 
  0.4645104  0.5128657  0.5154510

 Al 
  0.5029095  0.7716499  0.7304391

 Al 
  0.7368323  0.4847990  0.7596072

 Al 
  0.7670672  0.7543810  0.4955745

