32 
charge = 0 
 Al 
  0.9972167  0.9944631  0.9893805

 Al 
  0.9976919  0.2525209  0.2416118

 Al 
  0.2643372  0.9942911  0.2462341

 Al 
  0.2540122  0.2251943  0.0037622

 Al 
  0.4963665  0.9936513  0.9974382

 Al 
  0.4947057  0.2683729  0.2597112

 Al 
  0.7627840  0.9898916  0.2425771

 Al 
  0.7550158  0.2604982  0.0112569

 Al 
  0.9923630  0.4904077  0.0128744

 Al 
  0.9987451  0.7489097  0.2517313

 Al 
  0.2535642  0.5146886  0.2400834

 Al 
  0.2509752  0.7720360  0.0025877

 Al 
  0.0052139  0.9923642  0.4773254

 Al 
  0.9903359  0.2345131  0.7411415

 Al 
  0.2510594  0.0031657  0.7333461

 Al 
  0.2483281  0.2299824  0.5040778

 Al 
  0.9859834  0.5029751  0.5128298

 Al 
  0.0185597  0.7434360  0.7591171

 Al 
  0.2478590  0.4904237  0.7742426

 Al 
  0.2444656  0.7692144  0.4796136

 Al 
  0.4985805  0.4980236  0.0091691

 Al 
  0.5087186  0.7592285  0.2588473

 Al 
  0.7503577  0.5027944  0.2611876

 Al 
  0.7477860  0.7440349  0.9870947

 Al 
  0.5077979  0.0218368  0.4952886

 Al 
  0.4929360  0.2357544  0.7562782

 Al 
  0.7621850  0.9906898  0.7489258

 Al 
  0.7535048  0.2560121  0.5007042

 Al 
  0.4645525  0.5113819  0.5149733

 Al 
  0.5022004  0.7718764  0.7294874

 Al 
  0.7366653  0.4850663  0.7605911

 Al 
  0.7651342  0.7523031  0.4965113

