32 
charge = 0 
 Al 
  0.0018229  0.9936006  0.9861950

 Al 
  0.9995607  0.2520346  0.2407257

 Al 
  0.2640179  0.9935449  0.2474110

 Al 
  0.2568326  0.2270717  0.0026075

 Al 
  0.4965819  0.9913952  0.9999851

 Al 
  0.4938283  0.2692627  0.2573548

 Al 
  0.7596084  0.9871516  0.2384882

 Al 
  0.7533959  0.2588263  0.0104710

 Al 
  0.9918816  0.4915833  0.0126021

 Al 
  0.0049478  0.7497587  0.2520049

 Al 
  0.2555690  0.5138632  0.2392481

 Al 
  0.2536916  0.7695423  0.0058759

 Al 
  0.9980731  0.9911774  0.4750198

 Al 
  0.9912541  0.2381788  0.7359970

 Al 
  0.2473095  0.0025605  0.7380117

 Al 
  0.2448220  0.2349537  0.5049379

 Al 
  0.9905450  0.5008552  0.5109772

 Al 
  0.0167789  0.7423605  0.7598869

 Al 
  0.2464173  0.4906972  0.7733788

 Al 
  0.2454668  0.7676241  0.4806185

 Al 
  0.4970546  0.4986127  0.0102730

 Al 
  0.5083115  0.7575108  0.2568957

 Al 
  0.7499653  0.5039800  0.2641268

 Al 
  0.7448963  0.7415833  0.9895525

 Al 
  0.5068883  0.0229828  0.4963368

 Al 
  0.4921687  0.2396156  0.7553537

 Al 
  0.7593250  0.9885080  0.7512091

 Al 
  0.7556123  0.2552349  0.5036793

 Al 
  0.4647208  0.5138632  0.5157047

 Al 
  0.5033526  0.7713133  0.7313116

 Al 
  0.7370143  0.4847607  0.7587384

 Al 
  0.7682850  0.7559948  0.4950213

