32 
charge = 0 
 Al 
  0.9917653  0.9957143  0.9940213

 Al 
  0.9964655  0.2523860  0.2440956

 Al 
  0.2641342  0.9966103  0.2449285

 Al 
  0.2501027  0.2247141  0.0049923

 Al 
  0.4978875  0.9966809  0.9946302

 Al 
  0.4959717  0.2665041  0.2619697

 Al 
  0.7654151  0.9942701  0.2470063

 Al 
  0.7556519  0.2605465  0.0118905

 Al 
  0.9938109  0.4899720  0.0119969

 Al 
  0.9916328  0.7475632  0.2499344

 Al 
  0.2504554  0.5148594  0.2416514

 Al 
  0.2483008  0.7729246  0.9982266

 Al 
  0.0125662  0.9950250  0.4813425

 Al 
  0.9900970  0.2313314  0.7477897

 Al 
  0.2551346  0.0025766  0.7291000

 Al 
  0.2516484  0.2267796  0.5019727

 Al 
  0.9824736  0.5047671  0.5146428

 Al 
  0.0194582  0.7447874  0.7574204

 Al 
  0.2490916  0.4900723  0.7748651

 Al 
  0.2441599  0.7695448  0.4800691

 Al 
  0.5001596  0.4978070  0.0075850

 Al 
  0.5093745  0.7608361  0.2607222

 Al 
  0.7503119  0.5015804  0.2575912

 Al 
  0.7513390  0.7472885  0.9849154

 Al 
  0.5094847  0.0189632  0.4936290

 Al 
  0.4948394  0.2321482  0.7574860

 Al 
  0.7648767  0.9934508  0.7458096

 Al 
  0.7505569  0.2562225  0.4967749

 Al 
  0.4657146  0.5077768  0.5135241

 Al 
  0.5004294  0.7715621  0.7282536

 Al 
  0.7365935  0.4863126  0.7619907

 Al 
  0.7600973  0.7484221  0.4991721

