32 
charge = 0 
 Al 
  0.9952106  0.9949012  0.9909769

 Al 
  0.9971152  0.2525506  0.2423333

 Al 
  0.2643297  0.9949866  0.2457576

 Al 
  0.2526447  0.2248107  0.0042387

 Al 
  0.4967081  0.9947329  0.9963752

 Al 
  0.4951488  0.2677801  0.2606232

 Al 
  0.7638916  0.9913618  0.2442280

 Al 
  0.7554143  0.2607495  0.0115267

 Al 
  0.9927850  0.4901292  0.0126999

 Al 
  0.9961066  0.7484493  0.2512314

 Al 
  0.2525073  0.5148408  0.2405908

 Al 
  0.2499282  0.7725917  0.0010346

 Al 
  0.0080726  0.9932045  0.4786496

 Al 
  0.9901403  0.2331914  0.7435251

 Al 
  0.2526014  0.0031112  0.7316061

 Al 
  0.2496473  0.2284627  0.5034404

 Al 
  0.9844711  0.5037325  0.5135315

 Al 
  0.0190387  0.7439112  0.7585936

 Al 
  0.2483677  0.4903074  0.7745273

 Al 
  0.2442466  0.7695448  0.4796062

 Al 
  0.4991894  0.4978887  0.0086060

 Al 
  0.5089364  0.7598658  0.2596047

 Al 
  0.7504109  0.5023204  0.2598918

 Al 
  0.7490842  0.7451760  0.9862098

 Al 
  0.5083251  0.0209754  0.4947342

 Al 
  0.4935040  0.2343089  0.7567051

 Al 
  0.7632667  0.9916922  0.7478479

 Al 
  0.7524627  0.2561705  0.4992909

 Al 
  0.4648173  0.5101406  0.5145092

 Al 
  0.5015890  0.7718813  0.7289194

 Al 
  0.7365960  0.4854228  0.7612049

 Al 
  0.7634412  0.7508069  0.4973788

