32 
charge = 0 
 Al 
  0.9945324  0.9950559  0.9915450

 Al 
  0.9969544  0.2525382  0.2426278

 Al 
  0.2643099  0.9952651  0.2455968

 Al 
  0.2521645  0.2247364  0.0043946

 Al 
  0.4968813  0.9951079  0.9960237

 Al 
  0.4953047  0.2675536  0.2609116

 Al 
  0.7642283  0.9918964  0.2447762

 Al 
  0.7555059  0.2607717  0.0116083

 Al 
  0.9929570  0.4900673  0.0126021

 Al 
  0.9952230  0.7482847  0.2510173

 Al 
  0.2521274  0.5148681  0.2407802

 Al 
  0.2495916  0.7727155  0.0004950

 Al 
  0.0089996  0.9935275  0.4791384

 Al 
  0.9901032  0.2327843  0.7443468

 Al 
  0.2531100  0.0030494  0.7310641

 Al 
  0.2500656  0.2280395  0.5031880

 Al 
  0.9840206  0.5039627  0.5137580

 Al 
  0.0191599  0.7440758  0.7583907

 Al 
  0.2485248  0.4902653  0.7746089

 Al 
  0.2442008  0.7696030  0.4796545

 Al 
  0.4993886  0.4978578  0.0084080

 Al 
  0.5090156  0.7600688  0.2598448

 Al 
  0.7504109  0.5021670  0.2594488

 Al 
  0.7495260  0.7455757  0.9859351

 Al 
  0.5085268  0.0206339  0.4945324

 Al 
  0.4937293  0.2338510  0.7568549

 Al 
  0.7636082  0.9920363  0.7474667

 Al 
  0.7520989  0.2562014  0.4988033

 Al 
  0.4649510  0.5097000  0.5143334

 Al 
  0.5013712  0.7718516  0.7287585

 Al 
  0.7365836  0.4855713  0.7613856

 Al 
  0.7628261  0.7503193  0.4977006

