32 
charge = 0 
 Al 
  0.9896305  0.9962489  0.9961066

 Al 
  0.9962725  0.2521744  0.2455349

 Al 
  0.2639003  0.9978442  0.2443852

 Al 
  0.2484035  0.2249901  0.0054032

 Al 
  0.4989802  0.9979271  0.9936055

 Al 
  0.4965138  0.2655599  0.2626355

 Al 
  0.7661267  0.9963121  0.2487587

 Al 
  0.7555171  0.2600416  0.0120526

 Al 
  0.9946302  0.4900648  0.0113126

 Al 
  0.9888731  0.7469667  0.2489010

 Al 
  0.2490372  0.5147344  0.2424298

 Al 
  0.2473912  0.7727959  0.9964123

 Al 
  0.0150710  0.9963591  0.4832607

 Al 
  0.9902591  0.2304478  0.7505458

 Al 
  0.2566469  0.0019826  0.7278724

 Al 
  0.2527499  0.2263254  0.5008316

 Al 
  0.9815789  0.5052349  0.5152901

 Al 
  0.0194669  0.7453901  0.7565108

 Al 
  0.2494579  0.4898916  0.7749629

 Al 
  0.2442763  0.7691624  0.4805963

 Al 
  0.5007141  0.4978429  0.0069415

 Al 
  0.5096876  0.7613720  0.2612767

 Al 
  0.7501262  0.5011695  0.2560925

 Al 
  0.7527387  0.7487105  0.9842297

 Al 
  0.5103869  0.0173680  0.4928444

 Al 
  0.4959074  0.2310158  0.7579947

 Al 
  0.7657158  0.9945485  0.7444050

 Al 
  0.7493231  0.2561371  0.4951834

 Al 
  0.4665413  0.5061519  0.5128001

 Al 
  0.4996584  0.7711475  0.7280357

 Al 
  0.7366677  0.4870254  0.7623137

 Al 
  0.7577509  0.7470546  0.5004740

