32 
charge = 0 
 Al 
  0.9889114  0.9964346  0.9968455

 Al 
  0.9962428  0.2520878  0.2460831

 Al 
  0.2638025  0.9982922  0.2441934

 Al 
  0.2478083  0.2251398  0.0055307

 Al 
  0.4994109  0.9983528  0.9932714

 Al 
  0.4967007  0.2652158  0.2628286

 Al 
  0.7663272  0.9970422  0.2493639

 Al 
  0.7554230  0.2598077  0.0120959

 Al 
  0.9949359  0.4901280  0.0110391

 Al 
  0.9879412  0.7467588  0.2485199

 Al 
  0.2485335  0.5146701  0.2427157

 Al 
  0.2471004  0.7727006  0.9957886

 Al 
  0.0158643  0.9968405  0.4839488

 Al 
  0.9903470  0.2301965  0.7514962

 Al 
  0.2571482  0.0017413  0.7275172

 Al 
  0.2531026  0.2262747  0.5004072

 Al 
  0.9813326  0.5053611  0.5155029

 Al 
  0.0194248  0.7456079  0.7561705

 Al 
  0.2495706  0.4898235  0.7749740

 Al 
  0.2443431  0.7689644  0.4808066

 Al 
  0.5008935  0.4978702  0.0067237

 Al 
  0.5097990  0.7615415  0.2614363

 Al 
  0.7500408  0.5010383  0.2555715

 Al 
  0.7532102  0.7492117  0.9840169

 Al 
  0.5107235  0.0167690  0.4925622

 Al 
  0.4963108  0.2306705  0.7581704

 Al 
  0.7659707  0.9949186  0.7439038

 Al 
  0.7489010  0.2560900  0.4946438

 Al 
  0.4668667  0.5055752  0.5125365

 Al 
  0.4993911  0.7709680  0.7279974

 Al 
  0.7367073  0.4872927  0.7623942

 Al 
  0.7569130  0.7466103  0.5009455

