32 
charge = 0 
 Al 
  0.9833251  0.9980013  0.0033352

 Al 
  0.9966524  0.2512140  0.2515791

 Al 
  0.2626652  0.0022499  0.2424892

 Al 
  0.2427504  0.2273130  0.0062348

 Al 
  0.5038748  0.0017041  0.9909027

 Al 
  0.4982191  0.2620192  0.2636194

 Al 
  0.7671650  0.0035271  0.2545592

 Al 
  0.7538303  0.2568771  0.0122209

 Al 
  0.9978058  0.4911428  0.0081159

 Al 
  0.9805715  0.7450559  0.2450869

 Al 
  0.2441179  0.5137741  0.2453963

 Al 
  0.2451178  0.7711524  0.9907505

 Al 
  0.0210769  0.0011546  0.4900735

 Al 
  0.9917195  0.2291619  0.7593844

 Al 
  0.2610044  0.9991844  0.7258910

 Al 
  0.2556222  0.2278043  0.4964148

 Al 
  0.9803413  0.5057918  0.5170635

 Al 
  0.0182429  0.7475991  0.7528043

 Al 
  0.2502859  0.4891169  0.7745508

 Al 
  0.2453022  0.7660623  0.4829353

 Al 
  0.5021608  0.4983516  0.0050567

 Al 
  0.5107742  0.7626838  0.2620774

 Al 
  0.7489543  0.5001745  0.2511398

 Al 
  0.7568041  0.7535481  0.9825739

 Al 
  0.5139845  0.0109153  0.4900314

 Al 
  0.5002908  0.2287201  0.7595218

 Al 
  0.7674447  0.9978095  0.7394399

 Al 
  0.7455250  0.2554775  0.4904658

 Al 
  0.4703418  0.5004517  0.5101195

 Al 
  0.4972081  0.7687231  0.7284280

 Al 
  0.7373162  0.4898879  0.7625142

 Al 
  0.7495037  0.7433518  0.5052225

