32 
charge = 0 
 Al 
  0.9839785  0.9978009  0.0024925

 Al 
  0.9965410  0.2513316  0.2508044

 Al 
  0.2628397  0.0017462  0.2427145

 Al 
  0.2433889  0.2269553  0.0061841

 Al 
  0.5032375  0.0013081  0.9911539

 Al 
  0.4980348  0.2624499  0.2636058

 Al 
  0.7671402  0.0026818  0.2538859

 Al 
  0.7541038  0.2573326  0.0122284

 Al 
  0.9974246  0.4909720  0.0085404

 Al 
  0.9814551  0.7452626  0.2455287

 Al 
  0.2446896  0.5139201  0.2450299

 Al 
  0.2453233  0.7714098  0.9913593

 Al 
  0.0205633  0.0005928  0.4892753

 Al 
  0.9914843  0.2291879  0.7584030

 Al 
  0.2605515  0.9995446  0.7259641

 Al 
  0.2553401  0.2274269  0.4969506

 Al 
  0.9803685  0.5057967  0.5168890

 Al 
  0.0184743  0.7473318  0.7532795

 Al 
  0.2502141  0.4892196  0.7746597

 Al 
  0.2451488  0.7665474  0.4826444

 Al 
  0.5020259  0.4982662  0.0052510

 Al 
  0.5106505  0.7625687  0.2620712

 Al 
  0.7491263  0.5002599  0.2517029

 Al 
  0.7563945  0.7529949  0.9827261

 Al 
  0.5135377  0.0117259  0.4903619

 Al 
  0.4997339  0.2288686  0.7593696

 Al 
  0.7673234  0.9974692  0.7400252

 Al 
  0.7459284  0.2555703  0.4909497

 Al 
  0.4698319  0.5011237  0.5104413

 Al 
  0.4974729  0.7690820  0.7282969

 Al 
  0.7372110  0.4895290  0.7625514

 Al 
  0.7504641  0.7437243  0.5046582

