32 
charge = 0 
 Al 
  0.9867531  0.9970088  0.9991807

 Al 
  0.9962638  0.2517883  0.2479283

 Al 
  0.2634486  0.9997253  0.2435870

 Al 
  0.2459532  0.2257574  0.0058673

 Al 
  0.5008873  0.9996386  0.9923036

 Al 
  0.4972736  0.2640983  0.2632939

 Al 
  0.7668073  0.9993651  0.2512462

 Al 
  0.7549960  0.2589191  0.0121925

 Al 
  0.9959408  0.4904052  0.0100861

 Al 
  0.9851332  0.7461202  0.2472885

 Al 
  0.2469420  0.5144114  0.2436439

 Al 
  0.2462749  0.7722736  0.9938852

 Al 
  0.0180857  0.9983837  0.4861418

 Al 
  0.9907232  0.2295963  0.7544243

 Al 
  0.2586407  0.0008935  0.7266398

 Al 
  0.2541124  0.2264430  0.4990161

 Al 
  0.9807534  0.5056482  0.5161230

 Al 
  0.0191624  0.7463059  0.7550356

 Al 
  0.2498762  0.4895909  0.7749282

 Al 
  0.2446203  0.7681489  0.4815319

 Al 
  0.5014108  0.4979951  0.0060764

 Al 
  0.5101530  0.7620229  0.2618224

 Al 
  0.7497154  0.5006732  0.2539503

 Al 
  0.7546161  0.7507883  0.9834179

 Al 
  0.5118422  0.0147740  0.4916588

 Al 
  0.4976573  0.2297535  0.7586988

 Al 
  0.7666502  0.9960311  0.7423110

 Al 
  0.7476152  0.2559044  0.4930251

 Al 
  0.4679966  0.5037436  0.5116851

 Al 
  0.4985694  0.7702973  0.7279974

 Al 
  0.7368744  0.4881800  0.7625514

 Al 
  0.7542498  0.7453208  0.5024615

