32 
charge = 0 
 Al 
  0.9826952  0.9982006  0.0041755

 Al 
  0.9967786  0.2510977  0.2523699

 Al 
  0.2624845  0.0027474  0.2422628

 Al 
  0.2421192  0.2276917  0.0062720

 Al 
  0.5045270  0.0020853  0.9906700

 Al 
  0.4983986  0.2615823  0.2636070

 Al 
  0.7671662  0.0043711  0.2552312

 Al 
  0.7535407  0.2564031  0.0122073

 Al 
  0.9981882  0.4913234  0.0076791

 Al 
  0.9797077  0.7448530  0.2446513

 Al 
  0.2435486  0.5136194  0.2457663

 Al 
  0.2449285  0.7708802  0.9901564

 Al 
  0.0215423  0.0017165  0.4908717

 Al 
  0.9919695  0.2291656  0.7603522

 Al 
  0.2614450  0.9988206  0.7258576

 Al 
  0.2558933  0.2282288  0.4958789

 Al 
  0.9803413  0.5057695  0.5172306

 Al 
  0.0179892  0.7478702  0.7523180

 Al 
  0.2503539  0.4890117  0.7744258

 Al 
  0.2454606  0.7655487  0.4832286

 Al 
  0.5022870  0.4984456  0.0048686

 Al 
  0.5108967  0.7627890  0.2620588

 Al 
  0.7487748  0.5000953  0.2505792

 Al 
  0.7571964  0.7540963  0.9824291

 Al 
  0.5144362  0.0100936  0.4897022

 Al 
  0.5008576  0.2286013  0.7596641

 Al 
  0.7675462  0.9981412  0.7388533

 Al 
  0.7451339  0.2553834  0.4900017

 Al 
  0.4708678  0.4997797  0.5097965

 Al 
  0.4969494  0.7683419  0.7285827

 Al 
  0.7374288  0.4902530  0.7624635

 Al 
  0.7485483  0.7429917  0.5057881

