32 
charge = 0 
 Al 
  0.9791731  0.9995607  0.0097520

 Al 
  0.9979976  0.2504146  0.2580194

 Al 
  0.2610787  0.0057906  0.2407232

 Al 
  0.2381380  0.2307175  0.0061779

 Al 
  0.5091889  0.0042560  0.9896416

 Al 
  0.4994493  0.2585256  0.2627506

 Al 
  0.7665499  0.0099005  0.2597631

 Al 
  0.7512116  0.2528130  0.0119276

 Al 
  0.0006460  0.4927714  0.0044924

 Al 
  0.9745000  0.7436600  0.2420029

 Al 
  0.2398062  0.5123843  0.2483751

 Al 
  0.2440733  0.7687454  0.9866455

 Al 
  0.0234370  0.0053921  0.4961561

 Al 
  0.9940696  0.2299998  0.7664088

 Al 
  0.2640760  0.9964321  0.7266336

 Al 
  0.2574699  0.2322942  0.4923618

 Al 
  0.9810059  0.5051742  0.5181093

 Al 
  0.0156935  0.7497525  0.7487562

 Al 
  0.2507289  0.4882234  0.7730620

 Al 
  0.2466314  0.7613571  0.4851554

 Al 
  0.5028724  0.4992847  0.0037845

 Al 
  0.5116628  0.7631763  0.2612111

 Al 
  0.7473689  0.4997772  0.2469457

 Al 
  0.7592384  0.7575615  0.9816507

 Al 
  0.5174670  0.0043797  0.4876157

 Al 
  0.5048847  0.2286743  0.7602705

 Al 
  0.7677070  0.0001114  0.7349154

 Al 
  0.7428518  0.2547807  0.4875204

 Al 
  0.4748614  0.4952638  0.5076110

 Al 
  0.4954235  0.7651799  0.7302782

 Al 
  0.7383892  0.4928209  0.7617568

 Al 
  0.7423482  0.7408259  0.5095255

