32 
charge = 0 
 Al 
  0.9782214  0.0001126  0.0118571

 Al 
  0.9986436  0.2502438  0.2603510

 Al 
  0.2604339  0.0067658  0.2401280

 Al 
  0.2367729  0.2321234  0.0059651

 Al 
  0.5110972  0.0048723  0.9895451

 Al 
  0.4997673  0.2572670  0.2619858

 Al 
  0.7659955  0.0119165  0.2615254

 Al 
  0.7501436  0.2512697  0.0117247

 Al 
  0.0014962  0.4934459  0.0031484

 Al 
  0.9727922  0.7432986  0.2411848

 Al 
  0.2384127  0.5118051  0.2494456

 Al 
  0.2439582  0.7677739  0.9855626

 Al 
  0.0235657  0.0067422  0.4981536

 Al 
  0.9950906  0.2307287  0.7684892

 Al 
  0.2649423  0.9956141  0.7274244

 Al 
  0.2579749  0.2344377  0.4911131

 Al 
  0.9815801  0.5047151  0.5183147

 Al 
  0.0144943  0.7505210  0.7472241

 Al 
  0.2508539  0.4878731  0.7722217

 Al 
  0.2471066  0.7593820  0.4858559

 Al 
  0.5029479  0.4997327  0.0034528

 Al 
  0.5119177  0.7631392  0.2604611

 Al 
  0.7467291  0.4997562  0.2456091

 Al 
  0.7596802  0.7587483  0.9814267

 Al 
  0.5185696  0.0021175  0.4869252

 Al 
  0.5065393  0.2291693  0.7602730

 Al 
  0.7675103  0.0007549  0.7334030

 Al 
  0.7421576  0.2546112  0.4869524

 Al 
  0.4766658  0.4935251  0.5067633

 Al 
  0.4949507  0.7636058  0.7313054

 Al 
  0.7388694  0.4938617  0.7613101

 Al 
  0.7401193  0.7400698  0.5109005

