32 
charge = 0 
 Al 
  0.9788166  0.9997463  0.0104747

 Al 
  0.9982068  0.2503478  0.2588077

 Al 
  0.2608658  0.0061395  0.2405190

 Al 
  0.2376578  0.2311816  0.0061173

 Al 
  0.5098349  0.0044825  0.9895859

 Al 
  0.4995644  0.2581011  0.2625217

 Al 
  0.7663816  0.0106010  0.2603658

 Al 
  0.7508564  0.2522932  0.0118657

 Al 
  0.0009467  0.4929942  0.0040394

 Al 
  0.9738949  0.7435288  0.2417059

 Al 
  0.2393260  0.5121937  0.2487364

 Al 
  0.2440189  0.7684236  0.9862556

 Al 
  0.0235199  0.0058586  0.4968417

 Al 
  0.9944050  0.2302213  0.7671390

 Al 
  0.2643817  0.9961413  0.7268712

 Al 
  0.2576481  0.2329897  0.4919237

 Al 
  0.9811804  0.5050332  0.5181897

 Al 
  0.0153062  0.7500124  0.7482427

 Al 
  0.2507722  0.4881070  0.7727984

 Al 
  0.2467935  0.7607062  0.4853980

 Al 
  0.5029095  0.4994282  0.0036657

 Al 
  0.5117531  0.7631776  0.2609871

 Al 
  0.7471573  0.4997624  0.2464841

 Al 
  0.7594154  0.7579798  0.9815702

 Al 
  0.5178531  0.0036075  0.4873694

 Al 
  0.5054440  0.2288105  0.7602903

 Al 
  0.7676575  0.0003391  0.7343968

 Al 
  0.7426019  0.2547164  0.4872964

 Al 
  0.4754591  0.4946686  0.5073214

 Al 
  0.4952539  0.7646676  0.7306012

 Al 
  0.7385451  0.4931748  0.7616158

 Al 
  0.7415722  0.7405648  0.5100032

