32 
charge = 0 
 Al 
  0.9795678  0.9993713  0.0090070

 Al 
  0.9977959  0.2504913  0.2572224

 Al 
  0.2612890  0.0054168  0.2409324

 Al 
  0.2386441  0.2302584  0.0062287

 Al 
  0.5085330  0.0040072  0.9897196

 Al 
  0.4993243  0.2589550  0.2629548

 Al 
  0.7666997  0.0091741  0.2591481

 Al 
  0.7515630  0.2533352  0.0119858

 Al 
  0.0003317  0.4925511  0.0049478

 Al 
  0.9751423  0.7438010  0.2423234

 Al 
  0.2403025  0.5125724  0.2480100

 Al 
  0.2441439  0.7690647  0.9870662

 Al 
  0.0233095  0.0049069  0.4954495

 Al 
  0.9937404  0.2298017  0.7656403

 Al 
  0.2637518  0.9967390  0.7264244

 Al 
  0.2572793  0.2316210  0.4928197

 Al 
  0.9808475  0.5053030  0.5180177

 Al 
  0.0160685  0.7494901  0.7492698

 Al 
  0.2506844  0.4883397  0.7733083

 Al 
  0.2464668  0.7620006  0.4849017

 Al 
  0.5028241  0.4991461  0.0039132

 Al 
  0.5115663  0.7631602  0.2614103

 Al 
  0.7475793  0.4997983  0.2474234

 Al 
  0.7590305  0.7571222  0.9817385

 Al 
  0.5170660  0.0051668  0.4878781

 Al 
  0.5043179  0.2285679  0.7602334

 Al 
  0.7677405  0.9998701  0.7354463

 Al 
  0.7431216  0.2548525  0.4877791

 Al 
  0.4742686  0.4958740  0.5079068

 Al 
  0.4956067  0.7656774  0.7299738

 Al 
  0.7382370  0.4924620  0.7618893

 Al 
  0.7431563  0.7410982  0.5090317

