32 
charge = 0 
 Al 
  0.9800010  0.9991820  0.0082409

 Al 
  0.9976004  0.2505767  0.2564168

 Al 
  0.2614970  0.0050208  0.2411465

 Al 
  0.2391738  0.2298055  0.0062670

 Al 
  0.5078697  0.0037374  0.9898210

 Al 
  0.4991906  0.2593869  0.2631318

 Al 
  0.7668296  0.0084216  0.2585194

 Al 
  0.7519120  0.2538587  0.0120378

 Al 
  0.0000012  0.4923345  0.0054069

 Al 
  0.9758193  0.7439533  0.2426650

 Al 
  0.2408136  0.5127580  0.2476400

 Al 
  0.2442317  0.7693827  0.9875155

 Al 
  0.0231362  0.0044070  0.4947255

 Al 
  0.9934199  0.2296272  0.7648371

 Al 
  0.2634115  0.9970608  0.7262450

 Al 
  0.2570776  0.2309725  0.4932961

 Al 
  0.9807089  0.5054168  0.5179137

 Al 
  0.0164299  0.7492253  0.7497847

 Al 
  0.2506373  0.4884548  0.7735372

 Al 
  0.2462997  0.7626330  0.4846394

 Al 
  0.5027622  0.4990137  0.0040505

 Al 
  0.5114660  0.7631318  0.2615823

 Al 
  0.7477885  0.4998267  0.2479172

 Al 
  0.7587941  0.7566606  0.9818338

 Al 
  0.5166502  0.0059700  0.4881553

 Al 
  0.5037461  0.2284936  0.7601777

 Al 
  0.7677553  0.9996164  0.7359908

 Al 
  0.7434112  0.2549317  0.4880724

 Al 
  0.4736820  0.4964989  0.5082100

 Al 
  0.4958010  0.7661613  0.7296891

 Al 
  0.7380897  0.4920994  0.7620130

 Al 
  0.7439941  0.7413829  0.5085206

