32 
charge = 0 
 Al 
  0.9809774  0.9987946  0.0066556

 Al 
  0.9972378  0.2507685  0.2547931

 Al 
  0.2619054  0.0041644  0.2415858

 Al 
  0.2402987  0.2289231  0.0063079

 Al 
  0.5065294  0.0031335  0.9900945

 Al 
  0.4988973  0.2602619  0.2634040

 Al 
  0.7670301  0.0068499  0.2572286

 Al 
  0.7525915  0.2548983  0.0121244

 Al 
  0.9993033  0.4919125  0.0063252

 Al 
  0.9772784  0.7442874  0.2434112

 Al 
  0.2418766  0.5131182  0.2468912

 Al 
  0.2444594  0.7700027  0.9884969

 Al 
  0.0226462  0.0033637  0.4932231

 Al 
  0.9928048  0.2293575  0.7631293

 Al 
  0.2626751  0.9977414  0.7259826

 Al 
  0.2566395  0.2297659  0.4942961

 Al 
  0.9804923  0.5056037  0.5176724

 Al 
  0.0171068  0.7486869  0.7508106

 Al 
  0.2505346  0.4886825  0.7739444

 Al 
  0.2459606  0.7638570  0.4840924

 Al 
  0.5026063  0.4987674  0.0043525

 Al 
  0.5112494  0.7630328  0.2618509

 Al 
  0.7481969  0.4999084  0.2489468

 Al 
  0.7582335  0.7556804  0.9820479

 Al 
  0.5157839  0.0076073  0.4887468

 Al 
  0.5025890  0.2284392  0.7600168

 Al 
  0.7677306  0.9990656  0.7371133

 Al 
  0.7440486  0.2551037  0.4887567

 Al 
  0.4725274  0.4977848  0.5088337

 Al 
  0.4962279  0.7670858  0.7291817

 Al 
  0.7378075  0.4913618  0.7622284

 Al 
  0.7457539  0.7419880  0.5074576

