32 
charge = 0 
 Al 
  0.9776137  0.0006522  0.0137704

 Al 
  0.9993342  0.2501695  0.2625773

 Al 
  0.2597755  0.0075170  0.2395847

 Al 
  0.2356406  0.2335590  0.0056705

 Al 
  0.5129004  0.0052992  0.9896503

 Al 
  0.5000062  0.2560467  0.2609957

 Al 
  0.7652987  0.0136763  0.2631553

 Al 
  0.7490755  0.2497896  0.0114759

 Al 
  0.0021967  0.4941389  0.0018489

 Al 
  0.9713925  0.7430362  0.2405883

 Al 
  0.2371591  0.5112061  0.2504678

 Al 
  0.2439768  0.7667925  0.9847384

 Al 
  0.0233602  0.0079414  0.4999765

 Al 
  0.9961499  0.2316370  0.7702366

 Al 
  0.2656713  0.9949668  0.7284280

 Al 
  0.2583919  0.2367271  0.4900648

 Al 
  0.9822880  0.5041483  0.5184174

 Al 
  0.0131974  0.7512636  0.7457143

 Al 
  0.2509715  0.4875204  0.7712217

 Al 
  0.2475434  0.7573598  0.4864710

 Al 
  0.5029169  0.5002265  0.0031941

 Al 
  0.5121244  0.7629746  0.2594810

 Al 
  0.7460794  0.4997884  0.2444136

 Al 
  0.7598522  0.7597297  0.9812509

 Al 
  0.5194928  0.0000223  0.4863942

 Al 
  0.5081184  0.2299168  0.7601047

 Al 
  0.7671811  0.0012982  0.7320182

 Al 
  0.7416267  0.2545295  0.4867036

 Al 
  0.4785134  0.4919249  0.5059762

 Al 
  0.4945820  0.7619140  0.7325033

 Al 
  0.7393792  0.4948406  0.7608039

 Al 
  0.7381899  0.7393854  0.5121009

