32 
charge = 0 
 Al 
  0.9777783  0.0004727  0.0131528

 Al 
  0.9991003  0.2501832  0.2618472

 Al 
  0.2599970  0.0072905  0.2397604

 Al 
  0.2359920  0.2330776  0.0057769

 Al 
  0.5123113  0.0051780  0.9895933

 Al 
  0.4999356  0.2564502  0.2613509

 Al 
  0.7655463  0.0131182  0.2626256

 Al 
  0.7494307  0.2502747  0.0115638

 Al 
  0.0019801  0.4939062  0.0022771

 Al 
  0.9718269  0.7431130  0.2407628

 Al 
  0.2375625  0.5114079  0.2501324

 Al 
  0.2439570  0.7671204  0.9849847

 Al 
  0.0234617  0.0075578  0.4993874

 Al 
  0.9957935  0.2313153  0.7696909

 Al 
  0.2654423  0.9951624  0.7280729

 Al 
  0.2582620  0.2359500  0.4903916

 Al 
  0.9820380  0.5043488  0.5183951

 Al 
  0.0136404  0.7510185  0.7462155

 Al 
  0.2509331  0.4876392  0.7715732

 Al 
  0.2474024  0.7580380  0.4862754

 Al 
  0.5029392  0.5000569  0.0032721

 Al 
  0.5120613  0.7630439  0.2598337

 Al 
  0.7462960  0.4997723  0.2447973

 Al 
  0.7598250  0.7594253  0.9813054

 Al 
  0.5192070  0.0007017  0.4865526

 Al 
  0.5076011  0.2296409  0.7601802

 Al 
  0.7673048  0.0011274  0.7324650

 Al 
  0.7417863  0.2545456  0.4867519

 Al 
  0.4778922  0.4924434  0.5062324

 Al 
  0.4946946  0.7624907  0.7320850

 Al 
  0.7392060  0.4945213  0.7609784

 Al 
  0.7388001  0.7396082  0.5117210

