32 
charge = 0 
 Al 
  0.9790097  0.0032944  0.0208505

 Al 
  0.0030506  0.2514529  0.2718455

 Al 
  0.2562584  0.0082372  0.2378075

 Al 
  0.2334253  0.2410648  0.0036595

 Al 
  0.5201215  0.0050282  0.9924905

 Al 
  0.5003292  0.2503292  0.2532201

 Al 
  0.7603064  0.0187243  0.2692317

 Al 
  0.7441847  0.2440523  0.0095911

 Al 
  0.0035481  0.4979692  0.9961957

 Al 
  0.9682986  0.7430201  0.2407851

 Al 
  0.2325553  0.5080491  0.2546854

 Al 
  0.2453950  0.7616380  0.9839872

 Al 
  0.0193283  0.0119276  0.5069761

 Al 
  0.0013341  0.2380501  0.7744864

 Al 
  0.2678556  0.9943728  0.7353708

 Al 
  0.2593758  0.2488713  0.4879870

 Al 
  0.9872098  0.5000446  0.5175511

 Al 
  0.0057596  0.7547349  0.7387171

 Al 
  0.2517103  0.4858089  0.7638372

 Al 
  0.2490830  0.7472959  0.4886528

 Al 
  0.5013725  0.5031793  0.0026137

 Al 
  0.5125377  0.7603856  0.2515012

 Al 
  0.7427194  0.5002822  0.2402443

 Al 
  0.7571902  0.7618930  0.9808425

 Al 
  0.5208022  0.9921006  0.4863113

 Al 
  0.5148396  0.2365799  0.7570430

 Al 
  0.7641057  0.0031125  0.7271199

 Al 
  0.7408099  0.2557052  0.4898000

 Al 
  0.4886689  0.4859376  0.5026484

 Al 
  0.4938691  0.7518700  0.7407121

 Al 
  0.7422962  0.4986436  0.7579192

 Al 
  0.7326506  0.7363423  0.5153173

