32 
charge = 0 
 Al 
  0.9801854  0.0039342  0.0220781

 Al 
  0.0039181  0.2521410  0.2736102

 Al 
  0.2553475  0.0078065  0.2376219

 Al 
  0.2336530  0.2429694  0.0031855

 Al 
  0.5214309  0.0045097  0.9935189

 Al 
  0.5002587  0.2490149  0.2508490

 Al 
  0.7588758  0.0191612  0.2702094

 Al 
  0.7431971  0.2431612  0.0089760

 Al 
  0.0034404  0.4990174  0.9950374

 Al 
  0.9683110  0.7432726  0.2414806

 Al 
  0.2317472  0.5072670  0.2554391

 Al 
  0.2458925  0.7602841  0.9844624

 Al 
  0.0180226  0.0125080  0.5082979

 Al 
  0.0024405  0.2398916  0.7745916

 Al 
  0.2681513  0.9947849  0.7372989

 Al 
  0.2593894  0.2517313  0.4881986

 Al 
  0.9886466  0.4988144  0.5170685

 Al 
  0.0038513  0.7555418  0.7371925

 Al 
  0.2519454  0.4854339  0.7615180

 Al 
  0.2493367  0.7449817  0.4890958

 Al 
  0.5007227  0.5039342  0.0025543

 Al 
  0.5125130  0.7593980  0.2489951

 Al 
  0.7418878  0.5003849  0.2395859

 Al 
  0.7558933  0.7618843  0.9808252

 Al 
  0.5202799  0.9906985  0.4868794

 Al 
  0.5161886  0.2386775  0.7559118

 Al 
  0.7630959  0.0034367  0.7264356

 Al 
  0.7409225  0.2563536  0.4913928

 Al 
  0.4913878  0.4849562  0.5018873

 Al 
  0.4938827  0.7491424  0.7431055

 Al 
  0.7430820  0.4992958  0.7572496

 Al 
  0.7321011  0.7356121  0.5154473

