32 
charge = 0 
 Al 
  0.9838857  0.0054861  0.0244072

 Al 
  0.0057373  0.2542300  0.2770519

 Al 
  0.2531075  0.0060690  0.2375773

 Al 
  0.2352470  0.2477229  0.0022202

 Al 
  0.5238602  0.0027635  0.9961475

 Al 
  0.4998812  0.2460138  0.2447787

 Al 
  0.7553413  0.0192726  0.2718863

 Al 
  0.7413173  0.2418890  0.0072509

 Al 
  0.0026583  0.5017623  0.9925622

 Al 
  0.9692193  0.7441698  0.2439186

 Al 
  0.2302312  0.5053995  0.2567422

 Al 
  0.2470893  0.7567967  0.9863596

 Al 
  0.0148223  0.0134721  0.5110898

 Al 
  0.0047436  0.2445522  0.7736894

 Al 
  0.2686142  0.9964346  0.7421093

 Al 
  0.2592025  0.2581976  0.4896800

 Al 
  0.9923605  0.4956215  0.5156094

 Al 
  0.9992847  0.7574402  0.7338622

 Al 
  0.2525902  0.4846406  0.7552794

 Al 
  0.2498663  0.7397295  0.4902270

 Al 
  0.4988280  0.5056173  0.0024046

 Al 
  0.5122444  0.7566111  0.2424583

 Al 
  0.7399399  0.5004480  0.2384115

 Al 
  0.7521831  0.7612581  0.9809007

 Al 
  0.5177739  0.9878781  0.4890302

 Al 
  0.5189656  0.2441327  0.7528761

 Al 
  0.7603039  0.0040963  0.7255779

 Al 
  0.7415672  0.2583102  0.4960757

 Al 
  0.4982909  0.4832880  0.4999344

 Al 
  0.4941401  0.7423407  0.7491832

 Al 
  0.7451116  0.5004765  0.7558314

 Al 
  0.7315962  0.7338807  0.5148668

