32 
charge = 0 
 Al 
  0.9816358  0.0045963  0.0231833

 Al 
  0.0047560  0.2529677  0.2752302

 Al 
  0.2543921  0.0071766  0.2375303

 Al 
  0.2341567  0.2449743  0.0027375

 Al 
  0.5226016  0.0038414  0.9946302

 Al 
  0.5001349  0.2476969  0.2482959

 Al 
  0.7573684  0.0193629  0.2710423

 Al 
  0.7422949  0.2424595  0.0082793

 Al 
  0.0031929  0.5001535  0.9939236

 Al 
  0.9685585  0.7436092  0.2423989

 Al 
  0.2310195  0.5064626  0.2560925

 Al 
  0.2464135  0.7588325  0.9851517

 Al 
  0.0166502  0.0129907  0.5095577

 Al 
  0.0034936  0.2418568  0.7743973

 Al 
  0.2683902  0.9953839  0.7393334

 Al 
  0.2593399  0.2545839  0.4886676

 Al 
  0.9901985  0.4974803  0.5164905

 Al 
  0.0018823  0.7563623  0.7357012

 Al 
  0.2522078  0.4850713  0.7589525

 Al 
  0.2495730  0.7426724  0.4895624

 Al 
  0.4999653  0.5046879  0.0024937

 Al 
  0.5124387  0.7582682  0.2462675

 Al 
  0.7410400  0.5004505  0.2390154

 Al 
  0.7543884  0.7617148  0.9808363

 Al 
  0.5194235  0.9894040  0.4876702

 Al 
  0.5174645  0.2409559  0.7546557

 Al 
  0.7619623  0.0037412  0.7259306

 Al 
  0.7411316  0.2571308  0.4932701

 Al 
  0.4942874  0.4841208  0.5010804

 Al 
  0.4939545  0.7462588  0.7456673

 Al 
  0.7439260  0.4998676  0.7566036

 Al 
  0.7317559  0.7348621  0.5153507

