32 
charge = 0 
 Al 
  0.9869202  0.0065517  0.0254307

 Al 
  0.0065888  0.2558933  0.2785865

 Al 
  0.2516200  0.0043748  0.2379325

 Al 
  0.2371702  0.2510841  0.0017611

 Al 
  0.5248094  0.0012264  0.9979159

 Al 
  0.4994196  0.2441946  0.2405834

 Al 
  0.7529937  0.0186365  0.2724803

 Al 
  0.7406057  0.2418284  0.0058883

 Al 
  0.0017264  0.5038129  0.9911626

 Al 
  0.9704680  0.7449916  0.2461277

 Al 
  0.2296371  0.5041792  0.2571048

 Al 
  0.2477996  0.7542325  0.9881850

 Al 
  0.0127308  0.0138087  0.5126603

 Al 
  0.0059353  0.2477749  0.7721969

 Al 
  0.2687429  0.9980224  0.7454594

 Al 
  0.2590045  0.2620588  0.4914583

 Al 
  0.9949941  0.4933840  0.5144374

 Al 
  0.9963294  0.7586642  0.7319898

 Al 
  0.2530964  0.4842644  0.7506274

 Al 
  0.2502153  0.7365304  0.4911155

 Al 
  0.4973095  0.5064972  0.0022697

 Al 
  0.5118299  0.7544849  0.2378224

 Al 
  0.7387369  0.5002611  0.2379214

 Al 
  0.7494146  0.7603831  0.9810839

 Al 
  0.5150191  0.9863546  0.4910821

 Al 
  0.5203455  0.2480236  0.7506819

 Al 
  0.7581172  0.0044243  0.7256992

 Al 
  0.7423605  0.2598423  0.4997203

 Al 
  0.5031496  0.4827632  0.4984221

 Al 
  0.4944768  0.7376986  0.7533612

 Al 
  0.7466289  0.5009504  0.7550938

 Al 
  0.7318041  0.7328028  0.5137382

