32 
charge = 0 
 Al 
  0.9898953  0.0075231  0.0258465

 Al 
  0.0069204  0.2574501  0.2791718

 Al 
  0.2503923  0.0024813  0.2386181

 Al 
  0.2395327  0.2542040  0.0015346

 Al 
  0.5250050  0.9996238  0.9993862

 Al 
  0.4988020  0.2428147  0.2369499

 Al 
  0.7510173  0.0175387  0.2726041

 Al 
  0.7405500  0.2424608  0.0045332

 Al 
  0.0006015  0.5058042  0.9901626

 Al 
  0.9720261  0.7458839  0.2484889

 Al 
  0.2295505  0.5031595  0.2569093

 Al 
  0.2482724  0.7517883  0.9901837

 Al 
  0.0109995  0.0138916  0.5137778

 Al 
  0.0066606  0.2505977  0.7702218

 Al 
  0.2687169  0.9997475  0.7485025

 Al 
  0.2588869  0.2649238  0.4936278

 Al 
  0.9973380  0.4914658  0.5133125

 Al 
  0.9939087  0.7596691  0.7307312

 Al 
  0.2536124  0.4841629  0.7462539

 Al 
  0.2505767  0.7340478  0.4920660

 Al 
  0.4957997  0.5069044  0.0021286

 Al 
  0.5112074  0.7524875  0.2337162

 Al 
  0.7378261  0.4998503  0.2376776

 Al 
  0.7469655  0.7592607  0.9814069

 Al 
  0.5116900  0.9852594  0.4933407

 Al 
  0.5210509  0.2515408  0.7487105

 Al 
  0.7559217  0.0046037  0.7264182

 Al 
  0.7434397  0.2612334  0.5031632

 Al 
  0.5074885  0.4828177  0.4968492

 Al 
  0.4948641  0.7336716  0.7569279

 Al 
  0.7481362  0.5011262  0.7546532

 Al 
  0.7323462  0.7320071  0.5121256

