32 
charge = 0 
 Al 
  0.9910351  0.0078870  0.0258477

 Al 
  0.0069056  0.2580132  0.2791372

 Al 
  0.2499839  0.0016880  0.2389882

 Al 
  0.2405685  0.2553809  0.0015036

 Al 
  0.5248800  0.9989852  0.9998738

 Al 
  0.4985100  0.2423878  0.2356826

 Al 
  0.7503366  0.0169967  0.2725447

 Al 
  0.7407096  0.2428853  0.0040010

 Al 
  0.0001163  0.5065789  0.9898743

 Al 
  0.9727142  0.7462539  0.2494530

 Al 
  0.2296631  0.5028105  0.2566717

 Al 
  0.2483850  0.7508514  0.9910091

 Al 
  0.0104141  0.0138694  0.5141008

 Al 
  0.0068276  0.2515977  0.7693307

 Al 
  0.2686674  0.0004517  0.7496300

 Al 
  0.2588807  0.2657752  0.4945696

 Al 
  0.9981721  0.4908173  0.5128942

 Al 
  0.9931043  0.7600020  0.7304044

 Al 
  0.2538179  0.4842149  0.7446178

 Al 
  0.2507326  0.7332595  0.4924682

 Al 
  0.4952106  0.5069118  0.0020766

 Al 
  0.5108930  0.7517425  0.2322620

 Al 
  0.7375514  0.4996250  0.2376306

 Al 
  0.7461215  0.7587545  0.9815838

 Al 
  0.5102247  0.9849253  0.4942750

 Al 
  0.5211363  0.2528216  0.7480038

 Al 
  0.7550455  0.0046347  0.7268625

 Al 
  0.7439595  0.2617160  0.5044428

 Al 
  0.5090416  0.4829934  0.4961994

 Al 
  0.4950200  0.7322595  0.7581432

 Al 
  0.7487389  0.5011274  0.7545530

 Al 
  0.7326308  0.7317794  0.5113633

