32 
charge = 0 
 Al 
  0.9948159  0.0090936  0.0251337

 Al 
  0.0062212  0.2596666  0.2777944

 Al 
  0.2488973  0.9987290  0.2407579

 Al 
  0.2445411  0.2593114  0.0016101

 Al 
  0.5235657  0.9968059  0.0011410

 Al 
  0.4972823  0.2414076  0.2320492

 Al 
  0.7483367  0.0146750  0.2719506

 Al 
  0.7420586  0.2450547  0.0021583

 Al 
  0.9983070  0.5092533  0.9893334

 Al 
  0.9754319  0.7476152  0.2529305

 Al 
  0.2307497  0.5018130  0.2551111

 Al 
  0.2484060  0.7476944  0.9940189

 Al 
  0.0087756  0.0135971  0.5147196

 Al 
  0.0069452  0.2546037  0.7658173

 Al 
  0.2682850  0.0029739  0.7533476

 Al 
  0.2591010  0.2674769  0.4981140

 Al 
  0.0006460  0.4891342  0.5115724

 Al 
  0.9909571  0.7608720  0.7300307

 Al 
  0.2545555  0.4849215  0.7393805

 Al 
  0.2513910  0.7313252  0.4940288

 Al 
  0.4931996  0.5061395  0.0019393

 Al 
  0.5094389  0.7493243  0.2280135

 Al 
  0.7370204  0.4985632  0.2376070

 Al 
  0.7438481  0.7567150  0.9824736

 Al 
  0.5044738  0.9841208  0.4976734

 Al 
  0.5205386  0.2568388  0.7458802

 Al 
  0.7518935  0.0045542  0.7291087

 Al 
  0.7462836  0.2629746  0.5084773

 Al 
  0.5136949  0.4842805  0.4937577

 Al 
  0.4955336  0.7281137  0.7614252

 Al 
  0.7509158  0.5009170  0.7544726

 Al 
  0.7338906  0.7314328  0.5081692

