32 
charge = 0 
 Al 
  0.9926872  0.0084129  0.0256782

 Al 
  0.0067311  0.2587830  0.2787956

 Al 
  0.2494555  0.0004591  0.2396490

 Al 
  0.2422058  0.2570900  0.0015148

 Al 
  0.5244815  0.9980409  0.0005000

 Al 
  0.4980249  0.2418766  0.2339773

 Al 
  0.7494159  0.0160821  0.2723590

 Al 
  0.7411378  0.2436897  0.0032127

 Al 
  0.9993602  0.5077261  0.9895562

 Al 
  0.9738144  0.7468219  0.2509183

 Al 
  0.2299936  0.5023439  0.2561420

 Al 
  0.2484667  0.7494827  0.9922727

 Al 
  0.0096406  0.0137852  0.5144597

 Al 
  0.0069601  0.2529726  0.7679001

 Al 
  0.2685449  0.0015197  0.7512537

 Al 
  0.2589265  0.2667455  0.4960460

 Al 
  0.9993144  0.4899819  0.5123038

 Al 
  0.9920610  0.7604289  0.7301000

 Al 
  0.2541297  0.4844104  0.7422850

 Al 
  0.2509913  0.7322818  0.4931031

 Al 
  0.4943419  0.5067398  0.0020098

 Al 
  0.5103435  0.7506757  0.2302844

 Al 
  0.7372407  0.4992240  0.2375984

 Al 
  0.7450151  0.7579340  0.9819093

 Al 
  0.5078870  0.9845181  0.4957057

 Al 
  0.5210522  0.2546223  0.7470286

 Al 
  0.7537201  0.0046371  0.7276905

 Al 
  0.7448517  0.2623434  0.5062534

 Al 
  0.5111789  0.4834167  0.4951933

 Al 
  0.4952478  0.7303401  0.7597322

 Al 
  0.7496535  0.5010717  0.7544713

 Al 
  0.7331221  0.7315430  0.5100985

