32 
charge = 0 
 Al 
  0.9921427  0.0082397  0.0257574

 Al 
  0.0068091  0.2585367  0.2789478

 Al 
  0.2496201  0.0008750  0.2394139

 Al 
  0.2416489  0.2565257  0.0015036

 Al 
  0.5246423  0.9983540  0.0003057

 Al 
  0.4981932  0.2420301  0.2345206

 Al 
  0.7497104  0.0164002  0.2724333

 Al 
  0.7409695  0.2434001  0.0034751

 Al 
  0.9996164  0.5073449  0.9896478

 Al 
  0.9734382  0.7466301  0.2504257

 Al 
  0.2298624  0.5024925  0.2563413

 Al 
  0.2484518  0.7499356  0.9918482

 Al 
  0.0098856  0.0138199  0.5143557

 Al 
  0.0069316  0.2525308  0.7683902

 Al 
  0.2685919  0.0011621  0.7507203

 Al 
  0.2589030  0.2664621  0.4955460

 Al 
  0.9989481  0.4902418  0.5124957

 Al 
  0.9923878  0.7602953  0.7301767

 Al 
  0.2540258  0.4843300  0.7430474

 Al 
  0.2509009  0.7325813  0.4928865

 Al 
  0.4946302  0.5068227  0.0020308

 Al 
  0.5105378  0.7510247  0.2309168

 Al 
  0.7373311  0.4993664  0.2376046

 Al 
  0.7453616  0.7582162  0.9817930

 Al 
  0.5086865  0.9846418  0.4952255

 Al 
  0.5211091  0.2540369  0.7473430

 Al 
  0.7541644  0.0046421  0.7273922

 Al 
  0.7445386  0.2621479  0.5056643

 Al 
  0.5104908  0.4832545  0.4955336

 Al 
  0.4951735  0.7309539  0.7592335

 Al 
  0.7493466  0.5010977  0.7544899

 Al 
  0.7329501  0.7316086  0.5105366

