32 
charge = 0 
 Al 
  0.9937602  0.0087545  0.0254529

 Al 
  0.0065145  0.2592458  0.2783748

 Al 
  0.2491572  0.9996089  0.2401688

 Al 
  0.2433506  0.2582050  0.0015519

 Al 
  0.5240793  0.9974197  0.0008477

 Al 
  0.4976672  0.2416130  0.2329662

 Al 
  0.7488590  0.0154064  0.2721759

 Al 
  0.7415487  0.2443307  0.0026867

 Al 
  0.9988392  0.5084872  0.9894164

 Al 
  0.9745990  0.7472118  0.2519133

 Al 
  0.2303252  0.5020667  0.2556742

 Al 
  0.2484617  0.7485855  0.9931352

 Al 
  0.0091864  0.0137011  0.5146206

 Al 
  0.0069786  0.2538142  0.7668841

 Al 
  0.2684310  0.0022412  0.7523056

 Al 
  0.2589958  0.2671910  0.4970657

 Al 
  0.0000062  0.4895191  0.5119326

 Al 
  0.9914707  0.7606678  0.7300171

 Al 
  0.2543414  0.4846270  0.7408049

 Al 
  0.2511819  0.7317559  0.4935523

 Al 
  0.4937701  0.5064960  0.0019714

 Al 
  0.5099178  0.7499926  0.2290976

 Al 
  0.7371021  0.4989122  0.2375959

 Al 
  0.7443864  0.7573437  0.9821704

 Al 
  0.5062262  0.9843003  0.4966796

 Al 
  0.5208542  0.2557534  0.7464346

 Al 
  0.7528179  0.0046087  0.7283526

 Al 
  0.7455299  0.2626900  0.5073907

 Al 
  0.5124821  0.4838053  0.4944916

 Al 
  0.4953938  0.7291817  0.7606393

 Al 
  0.7502772  0.5010037  0.7544577

 Al 
  0.7334897  0.7314576  0.5091703

