32 
charge = 0 
 Al 
  0.9953393  0.0092619  0.0249381

 Al 
  0.0060443  0.2598621  0.2774429

 Al 
  0.2487822  0.9982748  0.2410809

 Al 
  0.2451525  0.2598646  0.0016447

 Al 
  0.5232662  0.9965014  0.0012660

 Al 
  0.4970794  0.2413259  0.2316271

 Al 
  0.7480867  0.0142877  0.2718232

 Al 
  0.7423519  0.2454470  0.0018922

 Al 
  0.9980360  0.5096394  0.9893124

 Al 
  0.9758688  0.7478231  0.2534491

 Al 
  0.2309972  0.5016942  0.2547931

 Al 
  0.2483578  0.7472489  0.9944693

 Al 
  0.0085850  0.0135365  0.5147480

 Al 
  0.0069105  0.2549812  0.7652641

 Al 
  0.2681996  0.0033451  0.7538699

 Al 
  0.2591666  0.2675585  0.4986486

 Al 
  0.0009480  0.4889721  0.5113967

 Al 
  0.9907282  0.7609611  0.7300740

 Al 
  0.2546644  0.4850997  0.7386887

 Al 
  0.2515036  0.7311445  0.4942763

 Al 
  0.4929137  0.5059168  0.0019244

 Al 
  0.5091765  0.7489951  0.2275098

 Al 
  0.7370006  0.4983751  0.2376169

 Al 
  0.7436142  0.7563858  0.9826419

 Al 
  0.5035605  0.9840453  0.4981795

 Al 
  0.5203356  0.2573672  0.7456178

 Al 
  0.7514195  0.0045183  0.7295233

 Al 
  0.7466908  0.2630922  0.5090020

 Al 
  0.5142691  0.4845527  0.4933766

 Al 
  0.4956017  0.7276100  0.7617729

 Al 
  0.7512425  0.5008675  0.7544886

 Al 
  0.7341047  0.7314452  0.5076407

