32 
charge = 0 
 Al 
  0.9958616  0.0094302  0.0247191

 Al 
  0.0058487  0.2600465  0.2770494

 Al 
  0.2486758  0.9978120  0.2414225

 Al 
  0.2457750  0.2604178  0.0016831

 Al 
  0.5229382  0.9961982  0.0013786

 Al 
  0.4968702  0.2412579  0.2312274

 Al 
  0.7478429  0.0138855  0.2716846

 Al 
  0.7426712  0.2458591  0.0016237

 Al 
  0.9977637  0.5100267  0.9893062

 Al 
  0.9763205  0.7480348  0.2539751

 Al 
  0.2312695  0.5015791  0.2544515

 Al 
  0.2482946  0.7468034  0.9949260

 Al 
  0.0084043  0.0134721  0.5147604

 Al 
  0.0068648  0.2553475  0.7646961

 Al 
  0.2681043  0.0037201  0.7543933

 Al 
  0.2592409  0.2676006  0.4991882

 Al 
  0.0012376  0.4888298  0.5112210

 Al 
  0.9905190  0.7610415  0.7301433

 Al 
  0.2547733  0.4853002  0.7380105

 Al 
  0.2516224  0.7309873  0.4945324

 Al 
  0.4926291  0.5056643  0.0019108

 Al 
  0.5089005  0.7486671  0.2270308

 Al 
  0.7369969  0.4981771  0.2376293

 Al 
  0.7434026  0.7560455  0.9828226

 Al 
  0.5026212  0.9839773  0.4986931

 Al 
  0.5201030  0.2578882  0.7453641

 Al 
  0.7509368  0.0044738  0.7299639

 Al 
  0.7471202  0.2631912  0.5095156

 Al 
  0.5148223  0.4848473  0.4929855

 Al 
  0.4956685  0.7271286  0.7620897

 Al 
  0.7515742  0.5008143  0.7545109

 Al 
  0.7343263  0.7314737  0.5070912

