32 
charge = 0 
 Al 
  0.9942886  0.0089241  0.0253044

 Al 
  0.0063772  0.2594612  0.2781050

 Al 
  0.2490223  0.9991733  0.2404547

 Al 
  0.2439409  0.2587595  0.0015791

 Al 
  0.5238367  0.9971115  0.0010012

 Al 
  0.4974791  0.2415029  0.2324959

 Al 
  0.7485941  0.0150475  0.2720695

 Al 
  0.7417912  0.2446822  0.0024244

 Al 
  0.9985743  0.5088696  0.9893681

 Al 
  0.9750087  0.7474123  0.2524194

 Al 
  0.2305257  0.5019368  0.2554044

 Al 
  0.2484407  0.7481399  0.9935746

 Al 
  0.0089760  0.0136516  0.5146775

 Al 
  0.0069687  0.2542151  0.7663569

 Al 
  0.2683630  0.0026063  0.7528266

 Al 
  0.2590441  0.2673543  0.4975868

 Al 
  0.0003317  0.4893174  0.5117519

 Al 
  0.9912034  0.7607742  0.7300109

 Al 
  0.2544478  0.4847644  0.7400859

 Al 
  0.2512834  0.7315294  0.4937874

 Al 
  0.4934842  0.5063326  0.0019541

 Al 
  0.5096852  0.7496572  0.2285431

 Al 
  0.7370539  0.4987426  0.2375996

 Al 
  0.7441067  0.7570343  0.9823165

 Al 
  0.5053611  0.9842062  0.4971734

 Al 
  0.5207118  0.2563017  0.7461524

 Al 
  0.7523588  0.0045852  0.7287189

 Al 
  0.7458962  0.2628397  0.5079402

 Al 
  0.5130996  0.4840317  0.4941290

 Al 
  0.4954643  0.7286372  0.7610477

 Al 
  0.7505940  0.5009628  0.7544614

 Al 
  0.7336852  0.7314378  0.5086790

