32 
charge = 0 
 Al 
  0.0005779  0.0109487  0.0215410

 Al 
  0.0032263  0.2612321  0.2714643

 Al 
  0.2480966  0.9931662  0.2455089

 Al 
  0.2517672  0.2654745  0.0020284

 Al 
  0.5186327  0.9936117  0.0017536

 Al 
  0.4947317  0.2411824  0.2287919

 Al 
  0.7457873  0.0095478  0.2700077

 Al 
  0.7467167  0.2504257  0.9990669

 Al 
  0.9952589  0.5136516  0.9899176

 Al 
  0.9811779  0.7501535  0.2590775

 Al 
  0.2348931  0.5007141  0.2503403

 Al 
  0.2470224  0.7427479  0.9992995

 Al 
  0.0071048  0.0126900  0.5141899

 Al 
  0.0060269  0.2582248  0.7590206

 Al 
  0.2666861  0.0072707  0.7594117

 Al 
  0.2603374  0.2660066  0.5041817

 Al 
  0.0033451  0.4885748  0.5095676

 Al 
  0.9894560  0.7613992  0.7319761

 Al 
  0.2557955  0.4882889  0.7326073

 Al 
  0.2530023  0.7305839  0.4972241

 Al 
  0.4901020  0.5018947  0.0017722

 Al 
  0.5056396  0.7457255  0.2239728

 Al 
  0.7377481  0.4959420  0.2378298

 Al 
  0.7426365  0.7524813  0.9851059

 Al 
  0.4929434  0.9837063  0.5036199

 Al 
  0.5165561  0.2622865  0.7435090

 Al 
  0.7461066  0.0037077  0.7351356

 Al 
  0.7520333  0.2631937  0.5135822

 Al 
  0.5188072  0.4885563  0.4889350

 Al 
  0.4962056  0.7236956  0.7634857

 Al 
  0.7547980  0.5002921  0.7548686

 Al 
  0.7367766  0.7326259  0.5012079

