32 
charge = 0 
 Al 
  0.0000520  0.0107816  0.0220039

 Al 
  0.0035889  0.2611455  0.2722687

 Al 
  0.2481276  0.9937218  0.2449631

 Al 
  0.2510841  0.2649114  0.0019999

 Al 
  0.5192305  0.9938803  0.0017697

 Al 
  0.4949829  0.2411465  0.2289478

 Al 
  0.7460113  0.0100911  0.2702304

 Al 
  0.7461673  0.2498515  0.9993627

 Al 
  0.9955324  0.5132419  0.9897876

 Al 
  0.9805641  0.7499010  0.2584823

 Al 
  0.2343857  0.5007982  0.2508774

 Al 
  0.2472316  0.7431971  0.9987983

 Al 
  0.0072237  0.0127939  0.5143149

 Al 
  0.0061519  0.2579414  0.7596926

 Al 
  0.2669014  0.0068635  0.7588201

 Al 
  0.2601802  0.2663655  0.5036322

 Al 
  0.0031570  0.4885043  0.5097681

 Al 
  0.9894993  0.7613918  0.7316606

 Al 
  0.2556816  0.4878434  0.7331295

 Al 
  0.2528192  0.7305381  0.4968925

 Al 
  0.4903718  0.5024467  0.0017945

 Al 
  0.5060715  0.7460547  0.2241882

 Al 
  0.7375872  0.4962279  0.2378013

 Al 
  0.7426142  0.7529182  0.9847879

 Al 
  0.4941179  0.9837075  0.5030494

 Al 
  0.5170784  0.2618224  0.7436761

 Al 
  0.7466870  0.0038290  0.7344537

 Al 
  0.7513960  0.2632815  0.5131862

 Al 
  0.5184620  0.4880538  0.4894300

 Al 
  0.4961512  0.7239914  0.7634684

 Al 
  0.7544243  0.5003465  0.7548228

 Al 
  0.7364648  0.7324105  0.5019393

