32 
charge = 0 
 Al 
  0.9995260  0.0106133  0.0224407

 Al 
  0.0039367  0.2610465  0.2730286

 Al 
  0.2481672  0.9942701  0.2444396

 Al 
  0.2503997  0.2643458  0.0019677

 Al 
  0.5198010  0.9941550  0.0017710

 Al 
  0.4952329  0.2411217  0.2291347

 Al 
  0.7462341  0.0106208  0.2704445

 Al 
  0.7456401  0.2492921  0.9996560

 Al 
  0.9958096  0.5128323  0.9896738

 Al 
  0.9799688  0.7496510  0.2578919

 Al 
  0.2339043  0.5008849  0.2513997

 Al 
  0.2474234  0.7436501  0.9982984

 Al 
  0.0073486  0.0128929  0.5144238

 Al 
  0.0062695  0.2576494  0.7603572

 Al 
  0.2671019  0.0064588  0.7582372

 Al 
  0.2600304  0.2666786  0.5030766

 Al 
  0.0029553  0.4884597  0.5099624

 Al 
  0.9895612  0.7613769  0.7313722

 Al 
  0.2555678  0.4874264  0.7336753

 Al 
  0.2526434  0.7305146  0.4965670

 Al 
  0.4906453  0.5029677  0.0018130

 Al 
  0.5064861  0.7463826  0.2244381

 Al 
  0.7374474  0.4965064  0.2377754

 Al 
  0.7426192  0.7533476  0.9844859

 Al 
  0.4952713  0.9837162  0.5024826

 Al 
  0.5175697  0.2613509  0.7438530

 Al 
  0.7472576  0.0039416  0.7337978

 Al 
  0.7507797  0.2633459  0.5127741

 Al 
  0.5180895  0.4875712  0.4899163

 Al 
  0.4960967  0.7243094  0.7634152

 Al 
  0.7540518  0.5004034  0.7547770

 Al 
  0.7361628  0.7322175  0.5026546

