32 
charge = 0 
 Al 
  0.0045641  0.0121467  0.0170363

 Al 
  0.9999579  0.2615526  0.2637580

 Al 
  0.2481053  0.9887035  0.2504430

 Al 
  0.2567744  0.2695782  0.0019256

 Al 
  0.5130711  0.9918308  0.0011423

 Al 
  0.4928729  0.2417356  0.2288179

 Al 
  0.7440411  0.0049280  0.2680201

 Al 
  0.7516930  0.2551866  0.9967328

 Al 
  0.9933221  0.5166861  0.9914856

 Al 
  0.9864982  0.7521496  0.2637134

 Al 
  0.2395859  0.5001299  0.2458752

 Al 
  0.2448381  0.7394411  0.0030407

 Al 
  0.0063536  0.0117828  0.5127395

 Al 
  0.0049267  0.2600787  0.7537721

 Al 
  0.2644300  0.0103980  0.7643013

 Al 
  0.2617964  0.2616950  0.5080392

 Al 
  0.0043946  0.4900599  0.5077038

 Al 
  0.9897555  0.7611603  0.7353943

 Al 
  0.2566210  0.4927157  0.7295394

 Al 
  0.2546755  0.7316977  0.4999740

 Al 
  0.4883632  0.4966635  0.0014343

 Al 
  0.5018056  0.7431625  0.2235978

 Al 
  0.7397790  0.4934917  0.2380266

 Al 
  0.7437775  0.7488862  0.9881899

 Al 
  0.4834030  0.9839265  0.5080788

 Al 
  0.5115465  0.2656106  0.7425759

 Al 
  0.7413853  0.0024281  0.7411700

 Al 
  0.7575170  0.2617036  0.5159980

 Al 
  0.5204000  0.4930437  0.4848819

 Al 
  0.4965695  0.7222860  0.7623410

 Al 
  0.7576840  0.5000087  0.7551124

 Al 
  0.7394943  0.7351332  0.4951364

