32 
charge = 0 
 Al 
  0.0058450  0.0124870  0.0151416

 Al 
  0.9987092  0.2615328  0.2605849

 Al 
  0.2482092  0.9871850  0.2523613

 Al 
  0.2581976  0.2707403  0.0016806

 Al 
  0.5108212  0.9913928  0.0007487

 Al 
  0.4923457  0.2420177  0.2294268

 Al 
  0.7434323  0.0032263  0.2672355

 Al 
  0.7536261  0.2568499  0.9959358

 Al 
  0.9927949  0.5175808  0.9922628

 Al 
  0.9885216  0.7527957  0.2652195

 Al 
  0.2414447  0.4999480  0.2443951

 Al 
  0.2438827  0.7384672  0.0041508

 Al 
  0.0061569  0.0114326  0.5120675

 Al 
  0.0045406  0.2605552  0.7520766

 Al 
  0.2633904  0.0114103  0.7660722

 Al 
  0.2623608  0.2596295  0.5090738

 Al 
  0.0045765  0.4909806  0.5068796

 Al 
  0.9901243  0.7609549  0.7369462

 Al 
  0.2568450  0.4945931  0.7289998

 Al 
  0.2553302  0.7323845  0.5009393

 Al 
  0.4880216  0.4945993  0.0012017

 Al 
  0.5003366  0.7422949  0.2240780

 Al 
  0.7408383  0.4925981  0.2380699

 Al 
  0.7445634  0.7476424  0.9895104

 Al 
  0.4801285  0.9840936  0.5095688

 Al 
  0.5095057  0.2665920  0.7424113

 Al 
  0.7397456  0.0018539  0.7434694

 Al 
  0.7594983  0.2608670  0.5164979

 Al 
  0.5204037  0.4947230  0.4834922

 Al 
  0.4966784  0.7222303  0.7614041

 Al 
  0.7586011  0.4999988  0.7550889

 Al 
  0.7405252  0.7363447  0.4930078

