32 
charge = 0 
 Al 
  0.0031409  0.0117370  0.0188592

 Al 
  0.0012289  0.2615056  0.2668507

 Al 
  0.2480508  0.9903433  0.2485149

 Al 
  0.2550505  0.2681674  0.0020469

 Al 
  0.5152777  0.9924051  0.0014616

 Al 
  0.4935139  0.2414819  0.2285320

 Al 
  0.7446834  0.0066816  0.2687961

 Al 
  0.7497488  0.2534107  0.9975868

 Al 
  0.9939755  0.5156292  0.9907962

 Al 
  0.9844525  0.7514281  0.2620415

 Al 
  0.2377333  0.5003317  0.2475224

 Al 
  0.2457453  0.7405883  0.0017338

 Al 
  0.0065962  0.0121343  0.5133632

 Al 
  0.0053463  0.2594773  0.7556643

 Al 
  0.2653780  0.0092755  0.7624635

 Al 
  0.2612235  0.2635723  0.5067472

 Al 
  0.0041000  0.4893198  0.5084612

 Al 
  0.9895154  0.7613088  0.7339538

 Al 
  0.2563400  0.4909101  0.7304292

 Al 
  0.2540184  0.7311371  0.4989468

 Al 
  0.4889003  0.4987389  0.0016039

 Al 
  0.5032919  0.7440956  0.2234493

 Al 
  0.7388681  0.4944223  0.2379635

 Al 
  0.7431612  0.7502215  0.9869375

 Al 
  0.4869276  0.9838003  0.5064613

 Al 
  0.5135538  0.2644659  0.7428395

 Al 
  0.7431340  0.0029627  0.7388359

 Al 
  0.7554341  0.2624128  0.5152653

 Al 
  0.5200671  0.4913111  0.4863819

 Al 
  0.4964482  0.7226041  0.7630266

 Al 
  0.7566507  0.5000755  0.7550616

 Al 
  0.7384474  0.7340453  0.4974024

