32 
charge = 0 
 Al 
  0.0054354  0.0123818  0.0157764

 Al 
  0.9991201  0.2615452  0.2616442

 Al 
  0.2481696  0.9876739  0.2517276

 Al 
  0.2577608  0.2703839  0.0017759

 Al 
  0.5115712  0.9915239  0.0008861

 Al 
  0.4925066  0.2419212  0.2291904

 Al 
  0.7436303  0.0037845  0.2674967

 Al 
  0.7529875  0.2563128  0.9961933

 Al 
  0.9929546  0.5173036  0.9919967

 Al 
  0.9878533  0.7525902  0.2647394

 Al 
  0.2408284  0.5000062  0.2448641

 Al 
  0.2442033  0.7387704  0.0038055

 Al 
  0.0062175  0.0115489  0.5122952

 Al 
  0.0046644  0.2604104  0.7526150

 Al 
  0.2637456  0.0110873  0.7654918

 Al 
  0.2621764  0.2603324  0.5087595

 Al 
  0.0045270  0.4906564  0.5071605

 Al 
  0.9899894  0.7610292  0.7364202

 Al 
  0.2567781  0.4939644  0.7291409

 Al 
  0.2551148  0.7321444  0.5006262

 Al 
  0.4881107  0.4952787  0.0012858

 Al 
  0.5008217  0.7425746  0.2238837

 Al 
  0.7404708  0.4928902  0.2380575

 Al 
  0.7442862  0.7480434  0.9890649

 Al 
  0.4811841  0.9840342  0.5090887

 Al 
  0.5101839  0.2662838  0.7424558

 Al 
  0.7402765  0.0020482  0.7427132

 Al 
  0.7588548  0.2611579  0.5163569

 Al 
  0.5204383  0.4941748  0.4839402

 Al 
  0.4966425  0.7222204  0.7617408

 Al 
  0.7583102  0.4999950  0.7551062

 Al 
  0.7401849  0.7359302  0.4936971

