32 
charge = 0 
 Al 
  0.0078981  0.0129251  0.0113559

 Al 
  0.9964606  0.2613658  0.2543884

 Al 
  0.2485323  0.9846567  0.2559106

 Al 
  0.2599574  0.2721499  0.0008168

 Al 
  0.5064205  0.9909076  0.9998812

 Al 
  0.4916922  0.2425895  0.2314861

 Al 
  0.7423333  0.0001386  0.2656861

 Al 
  0.7572187  0.2596480  0.9945461

 Al 
  0.9921811  0.5187812  0.9939656

 Al 
  0.9923370  0.7537770  0.2675994

 Al 
  0.2449297  0.4996238  0.2422021

 Al 
  0.2419967  0.7371578  0.0056557

 Al 
  0.0058784  0.0107519  0.5107062

 Al 
  0.0039837  0.2611269  0.7494480

 Al 
  0.2611108  0.0130229  0.7692664

 Al 
  0.2633409  0.2553104  0.5103064

 Al 
  0.0046805  0.4932021  0.5050418

 Al 
  0.9911551  0.7604277  0.7401663

 Al 
  0.2570479  0.4982823  0.7289268

 Al 
  0.2565071  0.7340057  0.5025717

 Al 
  0.4880439  0.4908928  0.0005433

 Al 
  0.4976152  0.7408259  0.2258490

 Al 
  0.7432528  0.4910190  0.2381107

 Al 
  0.7464148  0.7455732  0.9922145

 Al 
  0.4746956  0.9845193  0.5120749

 Al 
  0.5056495  0.2680078  0.7423246

 Al 
  0.7369487  0.0006670  0.7477080

 Al 
  0.7628632  0.2589723  0.5168148

 Al 
  0.5195362  0.4976820  0.4811965

 Al 
  0.4969049  0.7228466  0.7590305

 Al 
  0.7599772  0.5001757  0.7547807

 Al 
  0.7424385  0.7389696  0.4894238

