32 
charge = 0 
 Al 
  0.0091171  0.0130550  0.0082904

 Al 
  0.9949396  0.2611443  0.2495334

 Al 
  0.2488887  0.9830850  0.2584686

 Al 
  0.2603002  0.2723677  0.9997438

 Al 
  0.5028959  0.9908272  0.9992080

 Al 
  0.4915375  0.2430115  0.2339104

 Al 
  0.7415128  0.9979110  0.2643929

 Al 
  0.7598361  0.2613930  0.9935572

 Al 
  0.9921341  0.5191661  0.9954643

 Al 
  0.9952898  0.7542597  0.2689483

 Al 
  0.2474989  0.4993602  0.2412368

 Al 
  0.2405760  0.7367346  0.0061891

 Al 
  0.0057287  0.0101864  0.5096245

 Al 
  0.0038290  0.2612606  0.7480261

 Al 
  0.2590020  0.0139399  0.7715435

 Al 
  0.2639015  0.2517710  0.5105403

 Al 
  0.0046025  0.4953344  0.5032944

 Al 
  0.9922541  0.7599302  0.7428655

 Al 
  0.2569180  0.5011361  0.7297584

 Al 
  0.2572682  0.7355044  0.5036001

 Al 
  0.4888421  0.4884622  0.9998020

 Al 
  0.4956054  0.7398829  0.2279516

 Al 
  0.7454680  0.4899498  0.2381528

 Al 
  0.7480360  0.7442998  0.9944829

 Al 
  0.4713851  0.9849488  0.5137369

 Al 
  0.5028254  0.2686624  0.7424323

 Al 
  0.7351121  0.9996807  0.7508180

 Al 
  0.7649498  0.2572583  0.5164410

 Al 
  0.5180833  0.4996609  0.4798017

 Al 
  0.4971647  0.7240013  0.7567583

 Al 
  0.7606356  0.5005482  0.7542461

 Al 
  0.7438605  0.7412640  0.4871801

