32 
charge = 0 
 Al 
  0.0104859  0.0126244  0.0014838

 Al 
  0.9929199  0.2602767  0.2392258

 Al 
  0.2498404  0.9811383  0.2629622

 Al 
  0.2577682  0.2700151  0.9963814

 Al 
  0.4948802  0.9913903  0.9983132

 Al 
  0.4922244  0.2436501  0.2413965

 Al 
  0.7397629  0.9936748  0.2609933

 Al 
  0.7645933  0.2635711  0.9913878

 Al 
  0.9936290  0.5180796  0.9990260

 Al 
  0.0018304  0.7543674  0.2702057

 Al 
  0.2524318  0.4985236  0.2416291

 Al 
  0.2381442  0.7378508  0.0053871

 Al 
  0.0055022  0.0086716  0.5073722

 Al 
  0.0047225  0.2607445  0.7467365

 Al 
  0.2531743  0.0147208  0.7754839

 Al 
  0.2638743  0.2443505  0.5089005

 Al 
  0.0042201  0.5009529  0.4984184

 Al 
  0.9955027  0.7587001  0.7491275

 Al 
  0.2554205  0.5068140  0.7341270

 Al 
  0.2580120  0.7392679  0.5050851

 Al 
  0.4933110  0.4853398  0.9975311

 Al 
  0.4917046  0.7385290  0.2342842

 Al 
  0.7509801  0.4883793  0.2386441

 Al 
  0.7515012  0.7427293  0.9999171

 Al 
  0.4675858  0.9862074  0.5167665

 Al 
  0.4976474  0.2686117  0.7430387

 Al 
  0.7322261  0.9974469  0.7569774

 Al 
  0.7675202  0.2529281  0.5136639

 Al 
  0.5128397  0.5027721  0.4781768

 Al 
  0.4982340  0.7285258  0.7510841

 Al 
  0.7607618  0.5023068  0.7519851

 Al 
  0.7467489  0.7468380  0.4842867

