32 
charge = 0 
 Al 
  0.0101963  0.0129041  0.0040085

 Al 
  0.9934211  0.2606826  0.2429892

 Al 
  0.2494753  0.9816111  0.2614920

 Al 
  0.2591926  0.2713046  0.9977501

 Al 
  0.4979184  0.9910809  0.9985149

 Al 
  0.4918209  0.2434694  0.2383112

 Al 
  0.7404101  0.9951500  0.2623818

 Al 
  0.7630031  0.2630303  0.9922281

 Al 
  0.9928048  0.5187924  0.9976808

 Al 
  0.9993713  0.7544676  0.2700114

 Al 
  0.2507091  0.4988986  0.2411094

 Al 
  0.2389015  0.7371145  0.0059725

 Al 
  0.0055814  0.0092953  0.5081852

 Al 
  0.0041842  0.2610353  0.7469704

 Al 
  0.2555406  0.0146354  0.7742228

 Al 
  0.2641330  0.2469964  0.5098262

 Al 
  0.0043785  0.4987439  0.5003861

 Al 
  0.9941723  0.7591753  0.7467563

 Al 
  0.2561878  0.5048178  0.7321271

 Al 
  0.2579130  0.7378112  0.5046384

 Al 
  0.4912257  0.4861306  0.9984629

 Al 
  0.4930697  0.7389164  0.2316989

 Al 
  0.7488602  0.4888223  0.2383607

 Al 
  0.7502636  0.7431179  0.9978157

 Al 
  0.4684285  0.9856876  0.5157010

 Al 
  0.4994023  0.2688654  0.7427689

 Al 
  0.7331246  0.9982823  0.7547745

 Al 
  0.7668766  0.2546198  0.5149980

 Al 
  0.5150797  0.5018068  0.4785444

 Al 
  0.4977427  0.7265408  0.7532635

 Al 
  0.7609054  0.5014950  0.7530122

 Al 
  0.7457057  0.7446946  0.4850354

