32 
charge = 0 
 Al 
  0.0096654  0.0130390  0.0064675

 Al 
  0.9941971  0.2609747  0.2467155

 Al 
  0.2491300  0.9823536  0.2598361

 Al 
  0.2600453  0.2721029  0.9989567

 Al 
  0.5007933  0.9908891  0.9988676

 Al 
  0.4915920  0.2432293  0.2356480

 Al 
  0.7410400  0.9966908  0.2635773

 Al 
  0.7612569  0.2622036  0.9929942

 Al 
  0.9923110  0.5191377  0.9963950

 Al 
  0.9970237  0.7544119  0.2695151

 Al 
  0.2489171  0.4991832  0.2410141

 Al 
  0.2398111  0.7367593  0.0062262

 Al 
  0.0056606  0.0098275  0.5090008

 Al 
  0.0038946  0.2612160  0.7474568

 Al 
  0.2576085  0.0143198  0.7727612

 Al 
  0.2640909  0.2497017  0.5103770

 Al 
  0.0045171  0.4967291  0.5021237

 Al 
  0.9930177  0.7596159  0.7445040

 Al 
  0.2566903  0.5027499  0.7306037

 Al 
  0.2576098  0.7364598  0.5040939

 Al 
  0.4896750  0.4873137  0.9992736

 Al 
  0.4944891  0.7394226  0.2294416

 Al 
  0.7468752  0.4894139  0.2382097

 Al 
  0.7490000  0.7437132  0.9958740

 Al 
  0.4698889  0.9852433  0.5146107

 Al 
  0.5012945  0.2688481  0.7425536

 Al 
  0.7341889  0.9990879  0.7525481

 Al 
  0.7659064  0.2561692  0.5159559

 Al 
  0.5169348  0.5006584  0.4791693

 Al 
  0.4973751  0.7249542  0.7553067

 Al 
  0.7608373  0.5008873  0.7537944

 Al 
  0.7446624  0.7426947  0.4861282

