32 
charge = 0 
 Al 
  0.0103732  0.0127840  0.0027548

 Al 
  0.9931328  0.2604970  0.2411155

 Al 
  0.2496560  0.9813400  0.2622506

 Al 
  0.2585503  0.2707205  0.9970843

 Al 
  0.4964247  0.9912207  0.9983924

 Al 
  0.4920004  0.2435684  0.2397988

 Al 
  0.7400884  0.9944062  0.2617172

 Al 
  0.7638186  0.2633372  0.9918209

 Al 
  0.9931724  0.5184842  0.9983454

 Al 
  0.0005829  0.7544367  0.2701488

 Al 
  0.2515779  0.4987241  0.2413185

 Al 
  0.2385018  0.7374338  0.0057200

 Al 
  0.0055430  0.0089971  0.5077793

 Al 
  0.0044218  0.2609017  0.7468257

 Al 
  0.2543971  0.0147084  0.7748812

 Al 
  0.2640451  0.2456648  0.5094104

 Al 
  0.0043018  0.4998230  0.4994320

 Al 
  0.9948146  0.7589426  0.7479246

 Al 
  0.2558401  0.5058240  0.7330652

 Al 
  0.2579909  0.7385253  0.5048723

 Al 
  0.4921996  0.4856864  0.9980125

 Al 
  0.4923816  0.7387072  0.2329489

 Al 
  0.7499022  0.4885810  0.2384832

 Al 
  0.7508861  0.7428976  0.9988429

 Al 
  0.4679273  0.9859376  0.5162331

 Al 
  0.4985100  0.2687738  0.7428976

 Al 
  0.7326543  0.9978689  0.7558747

 Al 
  0.7672380  0.2537931  0.5143805

 Al 
  0.5140092  0.5023118  0.4783266

 Al 
  0.4979704  0.7274813  0.7521917

 Al 
  0.7608584  0.5018737  0.7525321

 Al 
  0.7462254  0.7457465  0.4846171

