32 
charge = 0 
 Al 
  0.0104203  0.0120279  0.9982587

 Al 
  0.9927739  0.2595292  0.2344575

 Al 
  0.2503044  0.9809799  0.2645092

 Al 
  0.2552398  0.2677702  0.9945164

 Al 
  0.4907888  0.9919348  0.9983367

 Al 
  0.4929793  0.2437788  0.2458393

 Al 
  0.7389300  0.9919063  0.2588733

 Al 
  0.7663135  0.2638199  0.9901552

 Al 
  0.9951822  0.5166415  0.0007685

 Al 
  0.0051173  0.7540406  0.2699656

 Al 
  0.2545035  0.4978739  0.2428234

 Al 
  0.2374858  0.7393198  0.0042226

 Al 
  0.0053760  0.0077137  0.5063536

 Al 
  0.0057460  0.2602804  0.7467106

 Al 
  0.2497612  0.0144510  0.7766695

 Al 
  0.2630068  0.2411886  0.5072113

 Al 
  0.0040035  0.5039652  0.4956487

 Al 
  0.9974098  0.7580417  0.7522685

 Al 
  0.2540382  0.5092050  0.7373261

 Al 
  0.2577781  0.7412455  0.5055480

 Al 
  0.4966833  0.4849079  0.9962131

 Al 
  0.4900822  0.7382246  0.2379734

 Al 
  0.7537919  0.4880798  0.2392641

 Al 
  0.7529937  0.7425437  0.0028291

 Al 
  0.4674917  0.9869895  0.5181266

 Al 
  0.4956314  0.2678815  0.7434347

 Al 
  0.7313376  0.9963554  0.7597644

 Al 
  0.7678778  0.2506002  0.5114437

 Al 
  0.5095082  0.5037325  0.4781323

 Al 
  0.4990557  0.7316061  0.7481956

 Al 
  0.7603126  0.5036409  0.7502908

 Al 
  0.7480768  0.7497265  0.4838696

