32 
charge = 0 
 Al 
  0.0105230  0.0124214  0.0001980

 Al 
  0.9927912  0.2600156  0.2373212

 Al 
  0.2500260  0.9810133  0.2636243

 Al 
  0.2568499  0.2691946  0.9956487

 Al 
  0.4932825  0.9915871  0.9982823

 Al 
  0.4924929  0.2437157  0.2431006

 Al 
  0.7394312  0.9929546  0.2602012

 Al 
  0.7653223  0.2637308  0.9909225

 Al 
  0.9941773  0.5175771  0.9997178

 Al 
  0.0031174  0.7542622  0.2701797

 Al 
  0.2532721  0.4982909  0.2420400

 Al 
  0.2378360  0.7383657  0.0049762

 Al 
  0.0054577  0.0083139  0.5069650

 Al 
  0.0050864  0.2605688  0.7466969

 Al 
  0.2518675  0.0146676  0.7760210

 Al 
  0.2636070  0.2430585  0.5082954

 Al 
  0.0041347  0.5021298  0.4973479

 Al 
  0.9962366  0.7584451  0.7503626

 Al 
  0.2549255  0.5077867  0.7353138

 Al 
  0.2579711  0.7400389  0.5052807

 Al 
  0.4945609  0.4850911  0.9970212

 Al 
  0.4910425  0.7383805  0.2357024

 Al 
  0.7520878  0.4882234  0.2388520

 Al 
  0.7521076  0.7426142  0.0010433

 Al 
  0.4674125  0.9865019  0.5173048

 Al 
  0.4968158  0.2683766  0.7431897

 Al 
  0.7318375  0.9970150  0.7580875

 Al 
  0.7677231  0.2520247  0.5128496

 Al 
  0.5115737  0.5031904  0.4780989

 Al 
  0.4985335  0.7296792  0.7499455

 Al 
  0.7606158  0.5027969  0.7513650

 Al 
  0.7472774  0.7479679  0.4840478

