32 
charge = 0 
 Al 
  0.0105143  0.0125291  0.0008428

 Al 
  0.9928457  0.2601517  0.2382753

 Al 
  0.2499332  0.9810665  0.2633001

 Al 
  0.2573251  0.2696191  0.9960188

 Al 
  0.4940882  0.9914856  0.9982909

 Al 
  0.4923531  0.2436847  0.2422355

 Al 
  0.7395983  0.9933134  0.2606059

 Al 
  0.7649634  0.2636602  0.9911601

 Al 
  0.9938914  0.5178407  0.9993701

 Al 
  0.0024689  0.7543191  0.2702044

 Al 
  0.2528538  0.4984110  0.2418222

 Al 
  0.2379833  0.7380959  0.0051916

 Al 
  0.0054799  0.0084971  0.5071680

 Al 
  0.0048970  0.2606579  0.7467118

 Al 
  0.2525308  0.0147035  0.7757623

 Al 
  0.2637530  0.2437008  0.5086097

 Al 
  0.0041780  0.5015358  0.4978900

 Al 
  0.9958641  0.7585738  0.7497413

 Al 
  0.2551829  0.5073029  0.7347050

 Al 
  0.2579996  0.7396503  0.5051841

 Al 
  0.4939186  0.4852025  0.9972786

 Al 
  0.4913717  0.7384511  0.2349822

 Al 
  0.7515309  0.4882951  0.2387419

 Al 
  0.7518056  0.7426650  0.0004740

 Al 
  0.4674781  0.9863522  0.5170350

 Al 
  0.4972279  0.2685028  0.7431130

 Al 
  0.7320269  0.9972316  0.7575318

 Al 
  0.7676316  0.2524813  0.5132691

 Al 
  0.5122185  0.5029875  0.4781273

 Al 
  0.4983788  0.7290889  0.7505185

 Al 
  0.7606950  0.5025444  0.7516843

 Al 
  0.7470125  0.7473986  0.4841555

