32 
charge = 0 
 Al 
  0.0102297  0.0116999  0.9969816

 Al 
  0.9928902  0.2591344  0.2325714

 Al 
  0.2504851  0.9810702  0.2650153

 Al 
  0.2540357  0.2667133  0.9937602

 Al 
  0.4890773  0.9921959  0.9984469

 Al 
  0.4933592  0.2437961  0.2477637

 Al 
  0.7385971  0.9912356  0.2578895

 Al 
  0.7668890  0.2637765  0.9895933

 Al 
  0.9959717  0.5159002  0.0014640

 Al 
  0.0064824  0.7538550  0.2696995

 Al 
  0.2552943  0.4975484  0.2434422

 Al 
  0.2373410  0.7400686  0.0036409

 Al 
  0.0053091  0.0072707  0.5059514

 Al 
  0.0062522  0.2600849  0.7467526

 Al 
  0.2482761  0.0142085  0.7769739

 Al 
  0.2624647  0.2400104  0.5063796

 Al 
  0.0039119  0.5052151  0.4944743

 Al 
  0.9982290  0.7577583  0.7535568

 Al 
  0.2533538  0.5101121  0.7388100

 Al 
  0.2575541  0.7420734  0.5057151

 Al 
  0.4982439  0.4849129  0.9956562

 Al 
  0.4894770  0.7381677  0.2395636

 Al 
  0.7549354  0.4880538  0.2396119

 Al 
  0.7535592  0.7425672  0.0040765

 Al 
  0.4677825  0.9873459  0.5186810

 Al 
  0.4948913  0.2674558  0.7436055

 Al 
  0.7310653  0.9959123  0.7608844

 Al 
  0.7678803  0.2496164  0.5103930

 Al 
  0.5080392  0.5040320  0.4782684

 Al 
  0.4994493  0.7330083  0.7470187

 Al 
  0.7600601  0.5042721  0.7494790

 Al 
  0.7486102  0.7509269  0.4838795

