32 
charge = 0 
 Al 
  0.0089847  0.0104017  0.9934855

 Al 
  0.9938914  0.2575764  0.2273576

 Al 
  0.2509740  0.9819242  0.2660438

 Al 
  0.2500916  0.2632803  0.9916848

 Al 
  0.4839426  0.9930895  0.9991436

 Al 
  0.4947305  0.2437070  0.2536842

 Al 
  0.7376764  0.9894782  0.2545394

 Al 
  0.7680622  0.2631479  0.9876949

 Al 
  0.9988181  0.5132654  0.0033897

 Al 
  0.0105378  0.7531855  0.2682639

 Al 
  0.2574093  0.4963467  0.2455720

 Al 
  0.2374326  0.7427256  0.0016682

 Al 
  0.0050171  0.0057633  0.5048104

 Al 
  0.0079538  0.2595589  0.7469247

 Al 
  0.2437020  0.0129845  0.7770779

 Al 
  0.2601431  0.2370242  0.5034763

 Al 
  0.0036409  0.5088387  0.4909732

 Al 
  0.0006918  0.7568685  0.7572954

 Al 
  0.2509665  0.5125316  0.7437416

 Al 
  0.2564143  0.7445733  0.5061940

 Al 
  0.5033476  0.4855193  0.9940052

 Al 
  0.4879362  0.7382741  0.2444607

 Al 
  0.7581951  0.4883298  0.2410141

 Al 
  0.7550715  0.7429620  0.0079303

 Al 
  0.4698159  0.9885525  0.5202973

 Al 
  0.4929904  0.2657641  0.7441302

 Al 
  0.7305987  0.9946364  0.7641354

 Al 
  0.7674360  0.2466400  0.5068450

 Al 
  0.5034553  0.5046037  0.4792733

 Al 
  0.5007982  0.7375662  0.7436773

 Al 
  0.7591245  0.5064056  0.7466685

 Al 
  0.7501510  0.7544750  0.4845428

