32 
charge = 0 
 Al 
  0.0083387  0.0098708  0.9925140

 Al 
  0.9944297  0.2569328  0.2258824

 Al 
  0.2511101  0.9824019  0.2662009

 Al 
  0.2487736  0.2621318  0.9911168

 Al 
  0.4823214  0.9934087  0.9994901

 Al 
  0.4952478  0.2436241  0.2555950

 Al 
  0.7374177  0.9890117  0.2533340

 Al 
  0.7682355  0.2627828  0.9870105

 Al 
  0.9998750  0.5123125  0.0039293

 Al 
  0.0118026  0.7529516  0.2675796

 Al 
  0.2579885  0.4958839  0.2463096

 Al 
  0.2376528  0.7436909  0.0009913

 Al 
  0.0048834  0.0052213  0.5044676

 Al 
  0.0085305  0.2594290  0.7469630

 Al 
  0.2422368  0.0124177  0.7768019

 Al 
  0.2591642  0.2362705  0.5024256

 Al 
  0.0035580  0.5099191  0.4898904

 Al 
  0.0014529  0.7565715  0.7584278

 Al 
  0.2501151  0.5132011  0.7454581

 Al 
  0.2558908  0.7453765  0.5063561

 Al 
  0.5050777  0.4859029  0.9934929

 Al 
  0.4875464  0.7384090  0.2460435

 Al 
  0.7591580  0.4885377  0.2415908

 Al 
  0.7554923  0.7431885  0.0091840

 Al 
  0.4708480  0.9889944  0.5207824

 Al 
  0.4924855  0.2650896  0.7442998

 Al 
  0.7305703  0.9942540  0.7651379

 Al 
  0.7671526  0.2456908  0.5055913

 Al 
  0.5019652  0.5046780  0.4798129

 Al 
  0.5012759  0.7391095  0.7427046

 Al 
  0.7587780  0.5071568  0.7456549

 Al 
  0.7506213  0.7555765  0.4849599

