32 
charge = 0 
 Al 
  0.0031038  0.0063685  0.9896156

 Al 
  0.9986350  0.2524751  0.2212230

 Al 
  0.2515420  0.9864747  0.2654423

 Al 
  0.2428704  0.2566927  0.9895884

 Al 
  0.4752153  0.9951797  0.0020704

 Al 
  0.4983751  0.2426872  0.2642518

 Al 
  0.7366467  0.9878657  0.2466747

 Al 
  0.7672046  0.2597965  0.9831989

 Al 
  0.0058289  0.5073734  0.0055913

 Al 
  0.0171959  0.7519380  0.2623360

 Al 
  0.2597495  0.4930288  0.2498057

 Al 
  0.2404324  0.7488540  0.9978689

 Al 
  0.0038067  0.0021991  0.5030135

 Al 
  0.0111121  0.2593114  0.7465967

 Al 
  0.2358695  0.0082174  0.7724531

 Al 
  0.2526236  0.2346060  0.4966932

 Al 
  0.0033043  0.5138372  0.4855428

 Al 
  0.0043834  0.7550814  0.7628731

 Al 
  0.2457873  0.5153841  0.7543104

 Al 
  0.2522016  0.7492253  0.5074576

 Al 
  0.5134461  0.4892196  0.9913284

 Al 
  0.4867086  0.7400079  0.2533253

 Al 
  0.7628013  0.4904262  0.2453728

 Al 
  0.7569786  0.7448951  0.0149052

 Al 
  0.4786223  0.9917294  0.5224246

 Al 
  0.4908606  0.2609017  0.7450943

 Al 
  0.7315269  0.9928110  0.7695052

 Al 
  0.7647938  0.2413618  0.4989109

 Al 
  0.4951587  0.5041273  0.4844389

 Al 
  0.5036768  0.7465484  0.7394708

 Al 
  0.7568907  0.5110564  0.7401379

 Al 
  0.7526496  0.7603163  0.4884758

