32 
charge = 0 
 Al 
  0.0057893  0.0080640  0.9904039

 Al 
  0.9965163  0.2546780  0.2225892

 Al 
  0.2514145  0.9843498  0.2661094

 Al 
  0.2452032  0.2589501  0.9899374

 Al 
  0.4780296  0.9943765  0.0007846

 Al 
  0.4969098  0.2432083  0.2607581

 Al 
  0.7368534  0.9880823  0.2496609

 Al 
  0.7680672  0.2613200  0.9849129

 Al 
  0.0031446  0.5095008  0.0051136

 Al 
  0.0150958  0.7523229  0.2650030

 Al 
  0.2592483  0.4943740  0.2483825

 Al 
  0.2388619  0.7465880  0.9991151

 Al 
  0.0043686  0.0035679  0.5035852

 Al 
  0.0101035  0.2592310  0.7469123

 Al 
  0.2383657  0.0103225  0.7750037

 Al 
  0.2557930  0.2348547  0.4992426

 Al 
  0.0033649  0.5125130  0.4871405

 Al 
  0.0033476  0.7557324  0.7612569

 Al 
  0.2476301  0.5147047  0.7504802

 Al 
  0.2540134  0.7475979  0.5068969

 Al 
  0.5099512  0.4874882  0.9921588

 Al 
  0.4868212  0.7391132  0.2503502

 Al 
  0.7614982  0.4894399  0.2435597

 Al 
  0.7564725  0.7440597  0.0125897

 Al 
  0.4747389  0.9904138  0.5219284

 Al 
  0.4913779  0.2628694  0.7447651

 Al 
  0.7308722  0.9933196  0.7677702

 Al 
  0.7660004  0.2431253  0.5018563

 Al 
  0.4979258  0.5045617  0.4820009

 Al 
  0.5026608  0.7434521  0.7404633

 Al 
  0.7577199  0.5093634  0.7425981

 Al 
  0.7518427  0.7584563  0.4866665

