32 
charge = 0 
 Al 
  0.0006745  0.0049020  0.9895723

 Al 
  0.0004888  0.2505111  0.2209915

 Al 
  0.2515569  0.9884597  0.2645723

 Al 
  0.2414695  0.2551087  0.9896936

 Al 
  0.4734481  0.9958356  0.0031941

 Al 
  0.4995953  0.2421724  0.2665227

 Al 
  0.7366591  0.9880489  0.2443629

 Al 
  0.7661019  0.2584427  0.9818808

 Al 
  0.0079006  0.5058487  0.0056816

 Al 
  0.0184879  0.7517289  0.2598819

 Al 
  0.2598349  0.4919175  0.2507017

 Al 
  0.2420214  0.7505371  0.9971276

 Al 
  0.0032597  0.0011064  0.5026372

 Al 
  0.0116814  0.2595268  0.7461227

 Al 
  0.2343300  0.0063413  0.7697725

 Al 
  0.2498886  0.2349463  0.4947564

 Al 
  0.0033439  0.5143706  0.4847347

 Al 
  0.0048401  0.7545641  0.7636850

 Al 
  0.2445102  0.5155871  0.7570974

 Al 
  0.2506274  0.7504220  0.5080058

 Al 
  0.5158532  0.4908519  0.9908594

 Al 
  0.4869066  0.7409002  0.2553351

 Al 
  0.7634696  0.4913284  0.2468925

 Al 
  0.7572063  0.7455683  0.0164027

 Al 
  0.4820393  0.9929075  0.5224828

 Al 
  0.4906515  0.2592718  0.7453282

 Al 
  0.7322855  0.9925746  0.7706166

 Al 
  0.7637097  0.2401676  0.4966908

 Al 
  0.4933097  0.5036013  0.4867940

 Al 
  0.5043711  0.7486597  0.7392530

 Al 
  0.7562843  0.5123014  0.7382320

 Al 
  0.7531929  0.7614895  0.4901193

