32 
charge = 0 
 Al 
  0.0042300  0.0070652  0.9898285

 Al 
  0.9977563  0.2533897  0.2216215

 Al 
  0.2515049  0.9855762  0.2657678

 Al 
  0.2437256  0.2575541  0.9896602

 Al 
  0.4762574  0.9948579  0.0015383

 Al 
  0.4977823  0.2429137  0.2629449

 Al 
  0.7366999  0.9878917  0.2478565

 Al 
  0.7676217  0.2604314  0.9838770

 Al 
  0.0047659  0.5081951  0.0054527

 Al 
  0.0164249  0.7520754  0.2634560

 Al 
  0.2596047  0.4935746  0.2492748

 Al 
  0.2397468  0.7479692  0.9983268

 Al 
  0.0040468  0.0027449  0.5032263

 Al 
  0.0107458  0.2592533  0.7467576

 Al 
  0.2367878  0.0090936  0.7735830

 Al 
  0.2539243  0.2346097  0.4976969

 Al 
  0.0033154  0.5133979  0.4861034

 Al 
  0.0040320  0.7553388  0.7623088

 Al 
  0.2464927  0.5151725  0.7528241

 Al 
  0.2529479  0.7485966  0.5072175

 Al 
  0.5121145  0.4884857  0.9916279

 Al 
  0.4867036  0.7396193  0.2522016

 Al 
  0.7623459  0.4900116  0.2446352

 Al 
  0.7568078  0.7445560  0.0140389

 Al 
  0.4770135  0.9911861  0.5222811

 Al 
  0.4910289  0.2616974  0.7449693

 Al 
  0.7312249  0.9929843  0.7688592

 Al 
  0.7652975  0.2420276  0.5000668

 Al 
  0.4962007  0.5043339  0.4833981

 Al 
  0.5032894  0.7453728  0.7397715

 Al 
  0.7572138  0.5103980  0.7411106

 Al 
  0.7523464  0.7596282  0.4877172

