32 
charge = 0 
 Al 
  0.9973603  0.0029132  0.9901688

 Al 
  0.0029318  0.2477872  0.2217167

 Al 
  0.2514628  0.9912764  0.2631144

 Al 
  0.2402963  0.2532870  0.9902443

 Al 
  0.4718071  0.9967130  0.0046829

 Al 
  0.5011967  0.2414163  0.2687602

 Al 
  0.7369004  0.9887110  0.2415586

 Al 
  0.7642481  0.2566247  0.9803178

 Al 
  0.0103794  0.5041409  0.0054960

 Al 
  0.0196921  0.7515841  0.2564056

 Al 
  0.2596084  0.4905067  0.2515160

 Al 
  0.2444112  0.7524937  0.9965311

 Al 
  0.0024231  0.9997116  0.5022264

 Al 
  0.0120761  0.2599525  0.7452255

 Al 
  0.2328969  0.0037832  0.7656502

 Al 
  0.2461957  0.2359747  0.4924595

 Al 
  0.0035345  0.5144523  0.4842929

 Al 
  0.0049478  0.7538785  0.7641317

 Al 
  0.2431724  0.5154522  0.7602532

 Al 
  0.2485137  0.7518563  0.5088275

 Al 
  0.5184347  0.4932107  0.9905128

 Al 
  0.4874759  0.7422281  0.2574860

 Al 
  0.7639065  0.4925734  0.2488627

 Al 
  0.7572930  0.7463640  0.0178481

 Al 
  0.4866677  0.9945832  0.5220979

 Al 
  0.4905908  0.2571407  0.7456116

 Al 
  0.7335120  0.9924756  0.7716883

 Al 
  0.7622271  0.2388780  0.4940659

 Al 
  0.4913717  0.5027635  0.4902789

 Al 
  0.5050752  0.7508985  0.7396849

 Al 
  0.7556000  0.5137246  0.7358918

 Al 
  0.7537919  0.7626454  0.4923927

