32 
charge = 0 
 Al 
  0.9987166  0.0037300  0.9898495

 Al 
  0.0019430  0.2489134  0.2212935

 Al 
  0.2515160  0.9901069  0.2637444

 Al 
  0.2406886  0.2540035  0.9899733

 Al 
  0.4723887  0.9963517  0.0040778

 Al 
  0.5005445  0.2417318  0.2679422

 Al 
  0.7367729  0.9883880  0.2426699

 Al 
  0.7650512  0.2573660  0.9809304

 Al 
  0.0094042  0.5047993  0.0056062

 Al 
  0.0192602  0.7516274  0.2578511

 Al 
  0.2597396  0.4910722  0.2512314

 Al 
  0.2434026  0.7517289  0.9967254

 Al 
  0.0027808  0.0002747  0.5023848

 Al 
  0.0119623  0.2597644  0.7456265

 Al 
  0.2334105  0.0048327  0.7674001

 Al 
  0.2477117  0.2354871  0.4933617

 Al 
  0.0034367  0.5144931  0.4843956

 Al 
  0.0049663  0.7541607  0.7640265

 Al 
  0.2436723  0.5155562  0.7590342

 Al 
  0.2493787  0.7512871  0.5084810

 Al 
  0.5174546  0.4922232  0.9906193

 Al 
  0.4872061  0.7416687  0.2566667

 Al 
  0.7637815  0.4920610  0.2480657

 Al 
  0.7572843  0.7460547  0.0173259

 Al 
  0.4847693  0.9938827  0.5223145

 Al 
  0.4905920  0.2580083  0.7454965

 Al 
  0.7329848  0.9924892  0.7713022

 Al 
  0.7628372  0.2393706  0.4950968

 Al 
  0.4921019  0.5031199  0.4888100

 Al 
  0.5048166  0.7500520  0.7394188

 Al 
  0.7558636  0.5131739  0.7368249

 Al 
  0.7535605  0.7622197  0.4914559

