32 
charge = 0 
 Al 
  0.9980434  0.0033253  0.9899955

 Al 
  0.0024355  0.2483565  0.2214841

 Al 
  0.2514925  0.9906849  0.2634362

 Al 
  0.2404794  0.2536434  0.9901007

 Al 
  0.4720855  0.9965299  0.0043797

 Al 
  0.5008688  0.2415759  0.2683642

 Al 
  0.7368311  0.9885402  0.2421118

 Al 
  0.7646589  0.2569984  0.9806222

 Al 
  0.0098955  0.5044664  0.0055567

 Al 
  0.0194842  0.7516039  0.2571370

 Al 
  0.2596802  0.4907888  0.2513799

 Al 
  0.2438976  0.7521138  0.9966202

 Al 
  0.0026063  0.9999950  0.5023056

 Al 
  0.0120266  0.2598559  0.7454334

 Al 
  0.2331444  0.0043117  0.7665413

 Al 
  0.2469605  0.2357185  0.4929075

 Al 
  0.0034813  0.5144844  0.4843325

 Al 
  0.0049663  0.7540208  0.7640909

 Al 
  0.2434162  0.5155116  0.7596505

 Al 
  0.2489493  0.7515717  0.5086518

 Al 
  0.5179533  0.4927095  0.9905611

 Al 
  0.4873348  0.7419435  0.2570826

 Al 
  0.7638520  0.4923147  0.2484629

 Al 
  0.7572930  0.7462118  0.0175969

 Al 
  0.4857111  0.9942280  0.5222167

 Al 
  0.4905883  0.2575764  0.7455534

 Al 
  0.7332422  0.9924781  0.7715026

 Al 
  0.7625340  0.2391206  0.4945782

 Al 
  0.4917294  0.5029454  0.4895315

 Al 
  0.5049502  0.7504826  0.7395364

 Al 
  0.7557312  0.5134523  0.7363571

 Al 
  0.7536780  0.7624375  0.4919200

