32 
charge = 0 
 Al 
  0.9945622  0.0011942  0.9910970

 Al 
  0.0049181  0.2453975  0.2230805

 Al 
  0.2512895  0.9937726  0.2616875

 Al 
  0.2398210  0.2518625  0.9909633

 Al 
  0.4709532  0.9974952  0.0059056

 Al 
  0.5025407  0.2407406  0.2700881

 Al 
  0.7372791  0.9895834  0.2393891

 Al 
  0.7624078  0.2551074  0.9791607

 Al 
  0.0122432  0.5029058  0.0051544

 Al 
  0.0203703  0.7515432  0.2533092

 Al 
  0.2592000  0.4893941  0.2519219

 Al 
  0.2466264  0.7539515  0.9963183

 Al 
  0.0016088  0.9985558  0.5019157

 Al 
  0.0121182  0.2603782  0.7442614

 Al 
  0.2320962  0.0016051  0.7617692

 Al 
  0.2430115  0.2372370  0.4907307

 Al 
  0.0038290  0.5140971  0.4843795

 Al 
  0.0046656  0.7532758  0.7640562

 Al 
  0.2423296  0.5150537  0.7625105

 Al 
  0.2467155  0.7529875  0.5095787

 Al 
  0.5201871  0.4953554  0.9904336

 Al 
  0.4881739  0.7434558  0.2589909

 Al 
  0.7639684  0.4936525  0.2504938

 Al 
  0.7572088  0.7469284  0.0186637

 Al 
  0.4906428  0.9961066  0.5213987

 Al 
  0.4906700  0.2553413  0.7458653

 Al 
  0.7347062  0.9925462  0.7722873

 Al 
  0.7609487  0.2379647  0.4920870

 Al 
  0.4900723  0.5019801  0.4935152

 Al 
  0.5054886  0.7524145  0.7405859

 Al 
  0.7551124  0.5147431  0.7340416

 Al 
  0.7542325  0.7633731  0.4943592

