32 
charge = 0 
 Al 
  0.9931501  0.0002995  0.9916885

 Al 
  0.0058945  0.2441439  0.2240112

 Al 
  0.2511683  0.9950844  0.2609042

 Al 
  0.2397381  0.2511410  0.9913977

 Al 
  0.4706883  0.9979221  0.0065121

 Al 
  0.5032288  0.2403891  0.2705943

 Al 
  0.7375316  0.9901317  0.2383409

 Al 
  0.7613819  0.2543451  0.9786273

 Al 
  0.0131169  0.5023254  0.0049354

 Al 
  0.0206227  0.7515408  0.2516732

 Al 
  0.2589340  0.4888570  0.2520420

 Al 
  0.2478231  0.7546421  0.9963009

 Al 
  0.0011497  0.9979642  0.5017586

 Al 
  0.0120427  0.2606059  0.7437020

 Al 
  0.2318029  0.0004913  0.7596579

 Al 
  0.2413532  0.2380018  0.4899151

 Al 
  0.0040307  0.5137939  0.4845651

 Al 
  0.0044045  0.7529528  0.7638805

 Al 
  0.2419979  0.5147604  0.7635389

 Al 
  0.2457910  0.7535481  0.5099748

 Al 
  0.5209581  0.4965051  0.9904621

 Al 
  0.4885996  0.7441191  0.2596864

 Al 
  0.7639102  0.4942156  0.2513205

 Al 
  0.7571135  0.7471746  0.0189545

 Al 
  0.4927070  0.9969271  0.5209148

 Al 
  0.4907393  0.2544107  0.7460089

 Al 
  0.7353708  0.9926303  0.7724902

 Al 
  0.7602891  0.2375415  0.4911452

 Al 
  0.4894943  0.5015593  0.4952775

 Al 
  0.5056359  0.7530914  0.7412145

 Al 
  0.7548884  0.5151997  0.7331283

 Al 
  0.7544428  0.7636837  0.4953752

