32 
charge = 0 
 Al 
  0.9872878  0.9962329  0.9950361

 Al 
  0.0097087  0.2383657  0.2298970

 Al 
  0.2503057  0.0011126  0.2570863

 Al 
  0.2405698  0.2476969  0.9936847

 Al 
  0.4710348  0.0001770  0.0089402

 Al 
  0.5062509  0.2389300  0.2714346

 Al 
  0.7391082  0.9933617  0.2341666

 Al 
  0.7561717  0.2511509  0.9768341

 Al 
  0.0162356  0.4999703  0.0037832

 Al 
  0.0211289  0.7516002  0.2440585

 Al 
  0.2574068  0.4868447  0.2519046

 Al 
  0.2535766  0.7573029  0.9968838

 Al 
  0.9986783  0.9953109  0.5009715

 Al 
  0.0108720  0.2615267  0.7407764

 Al 
  0.2313017  0.9956809  0.7493565

 Al 
  0.2337545  0.2423222  0.4869029

 Al 
  0.0054218  0.5115947  0.4864413

 Al 
  0.0023650  0.7513601  0.7620885

 Al 
  0.2414262  0.5127655  0.7670697

 Al 
  0.2416749  0.7559106  0.5117036

 Al 
  0.5234667  0.5020358  0.9911898

 Al 
  0.4910549  0.7473553  0.2624375

 Al 
  0.7630154  0.4968269  0.2549663

 Al 
  0.7562472  0.7478504  0.0192627

 Al 
  0.5021719  0.0008490  0.5177306

 Al 
  0.4911613  0.2501002  0.7468479

 Al 
  0.7387827  0.9933555  0.7724605

 Al 
  0.7573697  0.2359401  0.4875452

 Al 
  0.4873917  0.4995829  0.5040456

 Al 
  0.5057200  0.7555567  0.7452750

 Al 
  0.7540864  0.5166081  0.7293166

 Al 
  0.7552535  0.7647220  0.4999035

