32 
charge = 0 
 Al 
  0.9890872  0.9975645  0.9938369

 Al 
  0.0085874  0.2402740  0.2276768

 Al 
  0.2506497  0.9991288  0.2583771

 Al 
  0.2400908  0.2488800  0.9928877

 Al 
  0.4706203  0.9993651  0.0082125

 Al 
  0.5052844  0.2393669  0.2714247

 Al 
  0.7385117  0.9921687  0.2354327

 Al 
  0.7579823  0.2521435  0.9772982

 Al 
  0.0153767  0.5007141  0.0041706

 Al 
  0.0210670  0.7515754  0.2465880

 Al 
  0.2579526  0.4874202  0.2520729

 Al 
  0.2516373  0.7565108  0.9965769

 Al 
  0.9995681  0.9961796  0.5012549

 Al 
  0.0114128  0.2612593  0.7417999

 Al 
  0.2313227  0.9972043  0.7528625

 Al 
  0.2362593  0.2407529  0.4877580

 Al 
  0.0048760  0.5124561  0.4856418

 Al 
  0.0031842  0.7519083  0.7628496

 Al 
  0.2414324  0.5135426  0.7661217

 Al 
  0.2430053  0.7551705  0.5111628

 Al 
  0.5228157  0.5001658  0.9908358

 Al 
  0.4901527  0.7462502  0.2615836

 Al 
  0.7634189  0.4959556  0.2537869

 Al 
  0.7566160  0.7477130  0.0193419

 Al 
  0.4990409  0.9995334  0.5189570

 Al 
  0.4910153  0.2515408  0.7465323

 Al 
  0.7375885  0.9930560  0.7726573

 Al 
  0.7583053  0.2364103  0.4886008

 Al 
  0.4880117  0.5002426  0.5010185

 Al 
  0.5058017  0.7548290  0.7437355

 Al 
  0.7543129  0.5162814  0.7305096

 Al 
  0.7550134  0.7644349  0.4984370

