32 
charge = 0 
 Al 
  0.9878632  0.9966710  0.9946315

 Al 
  0.0093560  0.2389944  0.2291359

 Al 
  0.2504257  0.0004591  0.2575145

 Al 
  0.2403903  0.2480954  0.9934174

 Al 
  0.4708616  0.9998998  0.0087100

 Al 
  0.5059366  0.2390661  0.2714618

 Al 
  0.7389028  0.9929546  0.2345713

 Al 
  0.7567794  0.2514715  0.9769714

 Al 
  0.0159720  0.5002153  0.0039095

 Al 
  0.0211190  0.7515915  0.2448938

 Al 
  0.2575900  0.4870229  0.2519739

 Al 
  0.2529330  0.7570504  0.9967700

 Al 
  0.9989815  0.9955968  0.5010693

 Al 
  0.0110688  0.2614450  0.7411193

 Al 
  0.2312930  0.9961747  0.7505247

 Al 
  0.2345800  0.2417888  0.4871677

 Al 
  0.0052312  0.5118942  0.4861579

 Al 
  0.0026509  0.7515432  0.7623583

 Al 
  0.2414064  0.5130352  0.7667813

 Al 
  0.2421105  0.7556705  0.5115304

 Al 
  0.5232699  0.5014145  0.9910598

 Al 
  0.4907467  0.7469865  0.2621591

 Al 
  0.7631602  0.4965373  0.2545790

 Al 
  0.7563784  0.7478145  0.0193085

 Al 
  0.5011373  0.0004133  0.5181550

 Al 
  0.4911131  0.2505792  0.7467390

 Al 
  0.7383805  0.9932503  0.7725484

 Al 
  0.7576741  0.2360886  0.4878781

 Al 
  0.4875897  0.4998008  0.5030308

 Al 
  0.5057596  0.7553228  0.7447453

 Al 
  0.7541582  0.5165177  0.7297027

 Al 
  0.7551767  0.7646317  0.4994233

