32 
charge = 0 
 Al 
  0.9848547  0.9941736  0.9970794

 Al 
  0.0110886  0.2353807  0.2339278

 Al 
  0.2496362  0.0041743  0.2550158

 Al 
  0.2417046  0.2456846  0.9950040

 Al 
  0.4724345  0.0016361  0.0098856

 Al 
  0.5076655  0.2384263  0.2708455

 Al 
  0.7402220  0.9955052  0.2324142

 Al 
  0.7531125  0.2497512  0.9764281

 Al 
  0.0171662  0.4987946  0.0032239

 Al 
  0.0210324  0.7516410  0.2400636

 Al 
  0.2565096  0.4861628  0.2513687

 Al 
  0.2566828  0.7583733  0.9976053

 Al 
  0.9970893  0.9939607  0.5004307

 Al 
  0.0096567  0.2618274  0.7390649

 Al 
  0.2315764  0.9934768  0.7436327

 Al 
  0.2298661  0.2450918  0.4859091

 Al 
  0.0064675  0.5099537  0.4880860

 Al 
  0.0007797  0.7504307  0.7605552

 Al 
  0.2418531  0.5112668  0.7680721

 Al 
  0.2396837  0.7569737  0.5124128

 Al 
  0.5241238  0.5050604  0.9920289

 Al 
  0.4926749  0.7491844  0.2637394

 Al 
  0.7621442  0.4982253  0.2567843

 Al 
  0.7554577  0.7478714  0.0187441

 Al 
  0.5071160  0.0029268  0.5154126

 Al 
  0.4913791  0.2477551  0.7474481

 Al 
  0.7408198  0.9939520  0.7716833

 Al 
  0.7559972  0.2353522  0.4862037

 Al 
  0.4864957  0.4985224  0.5091159

 Al 
  0.5053475  0.7566259  0.7480917

 Al 
  0.7538006  0.5167554  0.7275853

 Al 
  0.7555604  0.7650834  0.5021360

