32 
charge = 0 
 Al 
  0.9867408  0.9958022  0.9954433

 Al 
  0.0100366  0.2377444  0.2306767

 Al 
  0.2501807  0.0017536  0.2566606

 Al 
  0.2407665  0.2472972  0.9939508

 Al 
  0.4712428  0.0004591  0.0091580

 Al 
  0.5065566  0.2388038  0.2713777

 Al 
  0.7393198  0.9937775  0.2337780

 Al 
  0.7555604  0.2508440  0.9767140

 Al 
  0.0164732  0.4997302  0.0036595

 Al 
  0.0211277  0.7516076  0.2432330

 Al 
  0.2572237  0.4866789  0.2518229

 Al 
  0.2542151  0.7575417  0.9970088

 Al 
  0.9983701  0.9950299  0.5008712

 Al 
  0.0106604  0.2616034  0.7404312

 Al 
  0.2313264  0.9952032  0.7481932

 Al 
  0.2329427  0.2428642  0.4866591

 Al 
  0.0056198  0.5112853  0.4867408

 Al 
  0.0020680  0.7511744  0.7618051

 Al 
  0.2414670  0.5124845  0.7673296

 Al 
  0.2412517  0.7561420  0.5118670

 Al 
  0.5236399  0.5026546  0.9913333

 Al 
  0.4913692  0.7477241  0.2627085

 Al 
  0.7628595  0.4971128  0.2553463

 Al 
  0.7561061  0.7478751  0.0191971

 Al 
  0.5031941  0.0012796  0.5172912

 Al 
  0.4912084  0.2496250  0.7469618

 Al 
  0.7391887  0.9934657  0.7723516

 Al 
  0.7570739  0.2358014  0.4872321

 Al 
  0.4871999  0.4993651  0.5050616

 Al 
  0.5056680  0.7557831  0.7458170

 Al 
  0.7540208  0.5166799  0.7289429

 Al 
  0.7553240  0.7648062  0.5003737

