32 
charge = 0 
 Al 
  0.9826382  0.9909014  0.0009344

 Al 
  0.0114970  0.2306148  0.2423160

 Al 
  0.2481820  0.0088312  0.2514851

 Al 
  0.2446933  0.2417170  0.9974222

 Al 
  0.4779739  0.0048302  0.0106146

 Al 
  0.5094339  0.2387171  0.2674781

 Al 
  0.7428791  0.0000619  0.2303648

 Al 
  0.7471375  0.2481350  0.9771942

 Al 
  0.0169880  0.4964569  0.0026311

 Al 
  0.0202292  0.7516571  0.2333201

 Al 
  0.2550579  0.4860056  0.2493862

 Al 
  0.2620006  0.7595961  0.9996807

 Al 
  0.9935795  0.9917863  0.4989852

 Al 
  0.0060702  0.2617321  0.7359524

 Al 
  0.2332781  0.9907579  0.7333313

 Al 
  0.2239134  0.2507487  0.4858287

 Al 
  0.0087867  0.5061730  0.4922826

 Al 
  0.9971029  0.7485459  0.7569291

 Al 
  0.2442812  0.5076221  0.7679830

 Al 
  0.2369078  0.7581815  0.5125971

 Al 
  0.5238812  0.5103831  0.9946426

 Al 
  0.4961252  0.7526236  0.2661019

 Al 
  0.7597941  0.5007289  0.2597928

 Al 
  0.7532919  0.7471969  0.0163494

 Al 
  0.5154262  0.0062410  0.5100416

 Al 
  0.4916192  0.2433147  0.7488899

 Al 
  0.7448963  0.9954136  0.7683073

 Al 
  0.7542288  0.2351765  0.4852978

 Al 
  0.4849908  0.4966140  0.5187961

 Al 
  0.5038909  0.7585775  0.7541619

 Al 
  0.7535035  0.5153235  0.7253416

 Al 
  0.7557237  0.7653346  0.5055641

