32 
charge = 0 
 Al 
  0.9827756  0.9914571  0.0002104

 Al 
  0.0117012  0.2314217  0.2406477

 Al 
  0.2484654  0.0080800  0.2521187

 Al 
  0.2440523  0.2424991  0.9969692

 Al 
  0.4765643  0.0041669  0.0105948

 Al 
  0.5092062  0.2384919  0.2683840

 Al 
  0.7422937  0.9991312  0.2306198

 Al 
  0.7483107  0.2483268  0.9768588

 Al 
  0.0172479  0.4969420  0.0026929

 Al 
  0.0204507  0.7516719  0.2345230

 Al 
  0.2552992  0.4858967  0.2498787

 Al 
  0.2610415  0.7594426  0.9992067

 Al 
  0.9943184  0.9921600  0.4993218

 Al 
  0.0069204  0.2618385  0.7365217

 Al 
  0.2328140  0.9910982  0.7352495

 Al 
  0.2248676  0.2496275  0.4856232

 Al 
  0.0083189  0.5069638  0.4913631

 Al 
  0.9978763  0.7489307  0.7576877

 Al 
  0.2436365  0.5084191  0.7682045

 Al 
  0.2373212  0.7580602  0.5127320

 Al 
  0.5240953  0.5094055  0.9940151

 Al 
  0.4954173  0.7519603  0.2656341

 Al 
  0.7603237  0.5002549  0.2592483

 Al 
  0.7537832  0.7474011  0.0169744

 Al 
  0.5139461  0.0056829  0.5111876

 Al 
  0.4915982  0.2441872  0.7485756

 Al 
  0.7440746  0.9950931  0.7691896

 Al 
  0.7544688  0.2350824  0.4852841

 Al 
  0.4852792  0.4969717  0.5169224

 Al 
  0.5042461  0.7581815  0.7529206

 Al 
  0.7535394  0.5158074  0.7256460

 Al 
  0.7557472  0.7653458  0.5049948

