32 
charge = 0 
 Al 
  0.9826877  0.9911725  0.0005767

 Al 
  0.0116182  0.2310084  0.2414843

 Al 
  0.2483219  0.0084674  0.2517969

 Al 
  0.2443703  0.2421081  0.9971982

 Al 
  0.4772499  0.0044973  0.0106121

 Al 
  0.5093275  0.2385921  0.2679459

 Al 
  0.7425821  0.9995953  0.2304824

 Al 
  0.7477229  0.2482229  0.9770148

 Al 
  0.0171316  0.4967019  0.0026583

 Al 
  0.0203443  0.7516670  0.2339117

 Al 
  0.2551755  0.4859425  0.2496386

 Al 
  0.2615279  0.7595255  0.9994406

 Al 
  0.9939520  0.9919695  0.4991572

 Al 
  0.0065046  0.2617915  0.7362321

 Al 
  0.2330380  0.9909151  0.7342817

 Al 
  0.2243738  0.2501893  0.4857111

 Al 
  0.0085528  0.5065702  0.4918172

 Al 
  0.9974915  0.7487389  0.7573103

 Al 
  0.2439496  0.5080244  0.7681055

 Al 
  0.2371058  0.7581295  0.5126776

 Al 
  0.5239988  0.5098993  0.9943221

 Al 
  0.4957700  0.7522932  0.2658668

 Al 
  0.7600626  0.5004925  0.2595230

 Al 
  0.7535407  0.7473034  0.0166712

 Al 
  0.5146973  0.0059688  0.5106195

 Al 
  0.4916106  0.2437515  0.7487315

 Al 
  0.7444842  0.9952515  0.7687614

 Al 
  0.7543414  0.2351195  0.4852792

 Al 
  0.4851344  0.4967922  0.5178630

 Al 
  0.5040716  0.7583783  0.7535394

 Al 
  0.7535196  0.5155784  0.7254839

 Al 
  0.7557398  0.7653445  0.5052869

