32 
charge = 0 
 Al 
  0.9827311  0.9901676  0.0019553

 Al 
  0.0108905  0.2295530  0.2447899

 Al 
  0.2477823  0.0097805  0.2505990

 Al 
  0.2456735  0.2405537  0.9980694

 Al 
  0.4803896  0.0058450  0.0105279

 Al 
  0.5096517  0.2392406  0.2658915

 Al 
  0.7438258  0.0014789  0.2301272

 Al 
  0.7453938  0.2479729  0.9778823

 Al 
  0.0163791  0.4956908  0.0025803

 Al 
  0.0198319  0.7516002  0.2316581

 Al 
  0.2547485  0.4863138  0.2485545

 Al 
  0.2633471  0.7597495  0.0004455

 Al 
  0.9924323  0.9912789  0.4984271

 Al 
  0.0046520  0.2614673  0.7351666

 Al 
  0.2340961  0.9904572  0.7305802

 Al 
  0.2227402  0.2524108  0.4863633

 Al 
  0.0094711  0.5049725  0.4937256

 Al 
  0.9959148  0.7479494  0.7557745

 Al 
  0.2453888  0.5063549  0.7674843

 Al 
  0.2364264  0.7582273  0.5121974

 Al 
  0.5233986  0.5117705  0.9956945

 Al 
  0.4972118  0.7536038  0.2668185

 Al 
  0.7589451  0.5014281  0.2605774

 Al 
  0.7525011  0.7468318  0.0152653

 Al 
  0.5174781  0.0069724  0.5082496

 Al 
  0.4916205  0.2420004  0.7493849

 Al 
  0.7461512  0.9959259  0.7667702

 Al 
  0.7539751  0.2354636  0.4855069

 Al 
  0.4845614  0.4961004  0.5215534

 Al 
  0.5033043  0.7591976  0.7560443

 Al 
  0.7534652  0.5144003  0.7250322

 Al 
  0.7556235  0.7652406  0.5063054

