32 
charge = 0 
 Al 
  0.9828449  0.9899522  0.0022759

 Al 
  0.0106047  0.2292399  0.2456042

 Al 
  0.2476573  0.0100490  0.2503205

 Al 
  0.2460039  0.2401676  0.9982773

 Al 
  0.4812782  0.0061878  0.0104685

 Al 
  0.5096914  0.2394683  0.2653000

 Al 
  0.7441612  0.0019553  0.2300876

 Al 
  0.7448171  0.2479531  0.9781632

 Al 
  0.0161168  0.4954223  0.0025741

 Al 
  0.0196810  0.7515705  0.2311433

 Al 
  0.2546607  0.4864561  0.2482513

 Al 
  0.2637716  0.7597817  0.0007141

 Al 
  0.9920388  0.9911230  0.4982253

 Al 
  0.0041384  0.2613497  0.7349253

 Al 
  0.2344018  0.9904151  0.7296965

 Al 
  0.2224234  0.2529578  0.4866034

 Al 
  0.0096926  0.5045716  0.4942218

 Al 
  0.9955126  0.7477439  0.7553859

 Al 
  0.2457948  0.5059118  0.7672764

 Al 
  0.2363027  0.7582026  0.5120068

 Al 
  0.5231932  0.5122110  0.9960757

 Al 
  0.4975818  0.7539255  0.2670635

 Al 
  0.7586456  0.5016596  0.2608311

 Al 
  0.7522239  0.7466945  0.0148644

 Al 
  0.5181167  0.0071890  0.5076308

 Al 
  0.4916118  0.2415573  0.7495570

 Al 
  0.7465794  0.9961079  0.7661997

 Al 
  0.7539181  0.2356034  0.4856282

 Al 
  0.4844166  0.4959358  0.5224593

 Al 
  0.5030951  0.7594129  0.7566754

 Al 
  0.7534553  0.5140377  0.7249715

 Al 
  0.7555715  0.7651861  0.5065220

