32 
charge = 0 
 Al 
  0.9840577  0.9891070  0.0036842

 Al 
  0.0085082  0.2280098  0.2495681

 Al 
  0.2471338  0.0110193  0.2490595

 Al 
  0.2476548  0.2382493  0.9992389

 Al 
  0.4863522  0.0079216  0.0099525

 Al 
  0.5096319  0.2410524  0.2618682

 Al 
  0.7460027  0.0043686  0.2301903

 Al 
  0.7419744  0.2481127  0.9799787

 Al 
  0.0143372  0.4939669  0.0025828

 Al 
  0.0187577  0.7512994  0.2288934

 Al 
  0.2543315  0.4874932  0.2465621

 Al 
  0.2657109  0.7598114  0.0021534

 Al 
  0.9900005  0.9904485  0.4970979

 Al 
  0.0012388  0.2604883  0.7339303

 Al 
  0.2361900  0.9906799  0.7255433

 Al 
  0.2214717  0.2556024  0.4882902

 Al 
  0.0107024  0.5026038  0.4967935

 Al 
  0.9934719  0.7466685  0.7534429

 Al 
  0.2480744  0.5035345  0.7659646

 Al 
  0.2359834  0.7577385  0.5105663

 Al 
  0.5218059  0.5142332  0.9982352

 Al 
  0.4995025  0.7555072  0.2683456

 Al 
  0.7570318  0.5028254  0.2620811

 Al 
  0.7507549  0.7459173  0.0125439

 Al 
  0.5209482  0.0080516  0.5043773

 Al 
  0.4915029  0.2393050  0.7504554

 Al 
  0.7488058  0.9971041  0.7628892

 Al 
  0.7538216  0.2366764  0.4866294

 Al 
  0.4837038  0.4951686  0.5268650

 Al 
  0.5019677  0.7605700  0.7598411

 Al 
  0.7534181  0.5117816  0.7250074

 Al 
  0.7551470  0.7646837  0.5073684

