32 
charge = 0 
 Al 
  0.9834414  0.9893953  0.0031644

 Al 
  0.0094810  0.2284318  0.2480088

 Al 
  0.2473207  0.0107062  0.2495372

 Al 
  0.2469977  0.2390129  0.9988701

 Al 
  0.4841976  0.0072274  0.0102025

 Al 
  0.5097074  0.2403272  0.2633347

 Al 
  0.7452317  0.0034008  0.2300876

 Al 
  0.7430994  0.2479951  0.9791706

 Al 
  0.0151428  0.4945733  0.0025729

 Al 
  0.0191624  0.7514343  0.2297250

 Al 
  0.2544391  0.4870130  0.2472724

 Al 
  0.2649720  0.7598238  0.0015581

 Al 
  0.9908284  0.9906985  0.4975731

 Al 
  0.0024652  0.2608893  0.7342817

 Al 
  0.2354228  0.9904770  0.7271496

 Al 
  0.2217192  0.2545666  0.4875192

 Al 
  0.0103213  0.5033785  0.4957502

 Al 
  0.9942911  0.7471091  0.7542189

 Al 
  0.2471165  0.5045183  0.7665388

 Al 
  0.2360514  0.7579959  0.5112433

 Al 
  0.5224333  0.5134634  0.9973194

 Al 
  0.4987204  0.7548822  0.2678209

 Al 
  0.7577014  0.5023563  0.2615848

 Al 
  0.7513564  0.7462452  0.0135340

 Al 
  0.5198913  0.0077496  0.5057101

 Al 
  0.4915611  0.2402146  0.7500891

 Al 
  0.7478961  0.9966858  0.7643037

 Al 
  0.7538241  0.2361678  0.4861492

 Al 
  0.4839859  0.4954631  0.5251299

 Al 
  0.5024343  0.7600898  0.7585775

 Al 
  0.7534330  0.5127729  0.7249233

 Al 
  0.7553512  0.7649337  0.5070789

