32 
charge = 0 
 Al 
  0.9858064  0.9887580  0.0044961

 Al 
  0.0060405  0.2274826  0.2525283

 Al 
  0.2468789  0.0113385  0.2482253

 Al 
  0.2489258  0.2367494  0.9998985

 Al 
  0.4911118  0.0092743  0.0092916

 Al 
  0.5092743  0.2428840  0.2585973

 Al 
  0.7476709  0.0062806  0.2306433

 Al 
  0.7398124  0.2485657  0.9819167

 Al 
  0.0123583  0.4926501  0.0026088

 Al 
  0.0177875  0.7509022  0.2275420

 Al 
  0.2542139  0.4887159  0.2450349

 Al 
  0.2670165  0.7597025  0.0034021

 Al 
  0.9883261  0.9900314  0.4960621

 Al 
  0.9985347  0.2594352  0.7334563

 Al 
  0.2379140  0.9914893  0.7225892

 Al 
  0.2215744  0.2575343  0.4902010

 Al 
  0.0113262  0.5011645  0.4988887

 Al 
  0.9918606  0.7457477  0.7519331

 Al 
  0.2501275  0.5014479  0.7646688

 Al 
  0.2361034  0.7569167  0.5087966

 Al 
  0.5202552  0.5155772  0.0002661

 Al 
  0.5011126  0.7567101  0.2694384

 Al 
  0.7556062  0.5037746  0.2630724

 Al 
  0.7495359  0.7452280  0.0103361

 Al 
  0.5227155  0.0084773  0.5016125

 Al 
  0.4913383  0.2374623  0.7511955

 Al 
  0.7507029  0.9980261  0.7597272

 Al 
  0.7539317  0.2380365  0.4879078

 Al 
  0.4831766  0.4946426  0.5301544

 Al 
  0.5010000  0.7615972  0.7622939

 Al 
  0.7533748  0.5094451  0.7254802

 Al 
  0.7545864  0.7639523  0.5077348

