32 
charge = 0 
 Al 
  0.9832001  0.9895649  0.0028810

 Al 
  0.0099005  0.2286780  0.2472142

 Al 
  0.2474259  0.0105119  0.2497896

 Al 
  0.2466660  0.2393966  0.9986770

 Al 
  0.4831815  0.0068796  0.0103064

 Al 
  0.5097198  0.2400116  0.2640216

 Al 
  0.7448641  0.0029169  0.2300678

 Al 
  0.7436686  0.2479642  0.9788067

 Al 
  0.0154980  0.4948654  0.0025704

 Al 
  0.0193468  0.7514876  0.2301755

 Al 
  0.2545047  0.4868051  0.2476115

 Al 
  0.2645847  0.7598188  0.0012697

 Al 
  0.9912368  0.9908334  0.4977984

 Al 
  0.0030456  0.2610613  0.7344822

 Al 
  0.2350651  0.9904250  0.7279813

 Al 
  0.2219110  0.2540369  0.4871813

 Al 
  0.0101183  0.5037733  0.4952354

 Al 
  0.9946995  0.7473244  0.7546074

 Al 
  0.2466586  0.5049936  0.7668024

 Al 
  0.2361145  0.7580887  0.5115304

 Al 
  0.5227105  0.5130575  0.9968875

 Al 
  0.4983367  0.7545654  0.2675647

 Al 
  0.7580244  0.5021237  0.2613348

 Al 
  0.7516509  0.7464012  0.0139981

 Al 
  0.5193245  0.0075776  0.5063611

 Al 
  0.4915821  0.2406651  0.7499084

 Al 
  0.7474506  0.9964866  0.7649671

 Al 
  0.7538426  0.2359537  0.4859487

 Al 
  0.4841295  0.4956166  0.5242488

 Al 
  0.5026608  0.7598584  0.7579439

 Al 
  0.7534392  0.5132246  0.7249158

 Al 
  0.7554354  0.7650327  0.5069093

