32 
charge = 0 
 Al 
  0.9909856  0.9890971  0.0048809

 Al 
  0.9996312  0.2278773  0.2572967

 Al 
  0.2469841  0.0108200  0.2471821

 Al 
  0.2510136  0.2340738  0.0007722

 Al 
  0.5015123  0.0114252  0.0075392

 Al 
  0.5078263  0.2478454  0.2513947

 Al 
  0.7512314  0.0095862  0.2324378

 Al 
  0.7363212  0.2502846  0.9866826

 Al 
  0.0072645  0.4897691  0.0025605

 Al 
  0.0151985  0.7495396  0.2263254

 Al 
  0.2543550  0.4919942  0.2419212

 Al 
  0.2687540  0.7593028  0.0059490

 Al 
  0.9853015  0.9895339  0.4938617

 Al 
  0.9925957  0.2563450  0.7336902

 Al 
  0.2417764  0.9945238  0.7180870

 Al 
  0.2242822  0.2604030  0.4950250

 Al 
  0.0117247  0.4991362  0.5026620

 Al 
  0.9891169  0.7439013  0.7493639

 Al 
  0.2541941  0.4971041  0.7620093

 Al 
  0.2373422  0.7541446  0.5038897

 Al 
  0.5162022  0.5171761  0.0048500

 Al 
  0.5042844  0.7587063  0.2715744

 Al 
  0.7526224  0.5056396  0.2649931

 Al 
  0.7474123  0.7439681  0.0054292

 Al 
  0.5245582  0.0086852  0.4961301

 Al 
  0.4909101  0.2339847  0.7524726

 Al 
  0.7545753  0.0001535  0.7527004

 Al 
  0.7542993  0.2420289  0.4914769

 Al 
  0.4825751  0.4939768  0.5353460

 Al 
  0.4991597  0.7637654  0.7662999

 Al 
  0.7531335  0.5037362  0.7275964

 Al 
  0.7528575  0.7614722  0.5076011

