32 
charge = 0 
 Al 
  0.9932417  0.9895723  0.0045431

 Al 
  0.9971053  0.2285444  0.2585243

 Al 
  0.2472439  0.0103077  0.2470534

 Al 
  0.2515445  0.2332793  0.0009084

 Al 
  0.5052572  0.0118843  0.0068412

 Al 
  0.5071024  0.2499616  0.2488243

 Al 
  0.7524850  0.0104834  0.2333177

 Al 
  0.7354822  0.2511522  0.9885538

 Al 
  0.0051718  0.4886961  0.0024875

 Al 
  0.0140550  0.7488627  0.2264059

 Al 
  0.2545010  0.4933555  0.2408940

 Al 
  0.2690572  0.7591468  0.0068301

 Al 
  0.9844488  0.9894584  0.4930969

 Al 
  0.9904609  0.2549329  0.7342112

 Al 
  0.2431823  0.9959643  0.7169806

 Al 
  0.2260371  0.2610081  0.4969098

 Al 
  0.0115217  0.4987699  0.5037684

 Al 
  0.9883941  0.7432763  0.7486498

 Al 
  0.2554539  0.4955757  0.7612037

 Al 
  0.2380897  0.7528588  0.5018118

 Al 
  0.5145117  0.5173333  0.0065826

 Al 
  0.5053401  0.7592310  0.2722378

 Al 
  0.7515643  0.5062744  0.2656403

 Al 
  0.7468628  0.7436266  0.0036360

 Al 
  0.5246188  0.0086085  0.4943010

 Al 
  0.4907715  0.2328919  0.7527882

 Al 
  0.7559180  0.0009851  0.7501448

 Al 
  0.7543500  0.2438159  0.4929966

 Al 
  0.4826234  0.4938963  0.5365675

 Al 
  0.4985941  0.7645277  0.7672751

 Al 
  0.7529615  0.5014851  0.7287164

 Al 
  0.7520519  0.7602346  0.5072991

