32 
charge = 0 
 Al 
  0.9940028  0.9897678  0.0043748

 Al 
  0.9962861  0.2288253  0.2588597

 Al 
  0.2473541  0.0101096  0.2470447

 Al 
  0.2516856  0.2330454  0.0009294

 Al 
  0.5064465  0.0119846  0.0066123

 Al 
  0.5068462  0.2506769  0.2480162

 Al 
  0.7528798  0.0107309  0.2336233

 Al 
  0.7352718  0.2514603  0.9891676

 Al 
  0.0044726  0.4883471  0.0024566

 Al 
  0.0136602  0.7486238  0.2264925

 Al 
  0.2545555  0.4938085  0.2405809

 Al 
  0.2691166  0.7590986  0.0071073

 Al 
  0.9842099  0.9894448  0.4928580

 Al 
  0.9897876  0.2544428  0.7344327

 Al 
  0.2436290  0.9964581  0.7166836

 Al 
  0.2266868  0.2611480  0.4975212

 Al 
  0.0114128  0.4986956  0.5040901

 Al 
  0.9881998  0.7430820  0.7484456

 Al 
  0.2558227  0.4950918  0.7609747

 Al 
  0.2383632  0.7524182  0.5011163

 Al 
  0.5139449  0.5173345  0.0071457

 Al 
  0.5056668  0.7593745  0.2724296

 Al 
  0.7512277  0.5064737  0.2658420

 Al 
  0.7467167  0.7435337  0.0030617

 Al 
  0.5245681  0.0085738  0.4937355

 Al 
  0.4907331  0.2325640  0.7528662

 Al 
  0.7563388  0.0012586  0.7493305

 Al 
  0.7543451  0.2444285  0.4935077

 Al 
  0.4826803  0.4938902  0.5368732

 Al 
  0.4984258  0.7647666  0.7675226

 Al 
  0.7528922  0.5007463  0.7291186

 Al 
  0.7517722  0.7597941  0.5071766

