32 
charge = 0 
 Al 
  0.9970336  0.9907047  0.0034528

 Al 
  0.9932144  0.2302312  0.2598473

 Al 
  0.2478974  0.0092223  0.2471845

 Al 
  0.2520742  0.2322756  0.0008948

 Al 
  0.5108571  0.0121157  0.0057411

 Al 
  0.5057720  0.2535283  0.2450770

 Al 
  0.7543154  0.0114549  0.2348795

 Al 
  0.7347792  0.2527746  0.9915326

 Al 
  0.0017177  0.4870130  0.0023056

 Al 
  0.0120217  0.7476177  0.2271026

 Al 
  0.2547782  0.4955745  0.2394919

 Al 
  0.2691599  0.7589340  0.0081196

 Al 
  0.9835095  0.9894374  0.4919880

 Al 
  0.9873348  0.2524170  0.7355341

 Al 
  0.2452824  0.9984345  0.7158235

 Al 
  0.2295369  0.2614215  0.4998243

 Al 
  0.0107928  0.4986152  0.5051433

 Al 
  0.9876528  0.7423779  0.7477971

 Al 
  0.2570096  0.4933097  0.7602866

 Al 
  0.2395513  0.7506472  0.4983837

 Al 
  0.5116900  0.5171031  0.0092941

 Al 
  0.5068338  0.7597879  0.2730348

 Al 
  0.7499752  0.5072063  0.2665685

 Al 
  0.7463257  0.7432689  0.0009170

 Al 
  0.5240347  0.0084253  0.4917133

 Al 
  0.4906354  0.2314403  0.7530481

 Al 
  0.7578697  0.0023130  0.7463046

 Al 
  0.7541891  0.2469073  0.4955299

 Al 
  0.4831209  0.4939755  0.5375823

 Al 
  0.4978578  0.7656354  0.7681328

 Al 
  0.7525568  0.4979098  0.7308475

 Al 
  0.7506188  0.7579204  0.5066172

