32 
charge = 0 
 Al 
  0.9977798  0.9909732  0.0031644

 Al 
  0.9925066  0.2306482  0.2600119

 Al 
  0.2480570  0.0089822  0.2472613

 Al 
  0.2521311  0.2321234  0.0008589

 Al 
  0.5118682  0.0120811  0.0055369

 Al 
  0.5054935  0.2542325  0.2444211

 Al 
  0.7546371  0.0115700  0.2351975

 Al 
  0.7347433  0.2531199  0.9920994

 Al 
  0.0010433  0.4866950  0.0022623

 Al 
  0.0115984  0.7473578  0.2273155

 Al 
  0.2548327  0.4960014  0.2392617

 Al 
  0.2691265  0.7589005  0.0083461

 Al 
  0.9833969  0.9894473  0.4917937

 Al 
  0.9867890  0.2518984  0.7358584

 Al 
  0.2456599  0.9989196  0.7156849

 Al 
  0.2302980  0.2614227  0.5003577

 Al 
  0.0105948  0.4986412  0.5053500

 Al 
  0.9875736  0.7422219  0.7476746

 Al 
  0.2572323  0.4929038  0.7601728

 Al 
  0.2398681  0.7502079  0.4977192

 Al 
  0.5111331  0.5169942  0.0098015

 Al 
  0.5070925  0.7598535  0.2731412

 Al 
  0.7496857  0.5073722  0.2667281

 Al 
  0.7462749  0.7432281  0.0004195

 Al 
  0.5238268  0.0083907  0.4912690

 Al 
  0.4906267  0.2312064  0.7530605

 Al 
  0.7582112  0.0025642  0.7456091

 Al 
  0.7541124  0.2475286  0.4960249

 Al 
  0.4832842  0.4940226  0.5376355

 Al 
  0.4977414  0.7658284  0.7681909

 Al 
  0.7524578  0.4972353  0.7313066

 Al 
  0.7503242  0.7574279  0.5064650

