32 
charge = 0 
 Al 
  0.9985199  0.9912554  0.0028551

 Al 
  0.9918247  0.2310925  0.2601455

 Al 
  0.2482241  0.0087372  0.2473553

 Al 
  0.2521707  0.2319873  0.0008118

 Al 
  0.5128422  0.0120204  0.0053364

 Al 
  0.5052101  0.2549317  0.2437986

 Al 
  0.7549441  0.0116603  0.2355156

 Al 
  0.7347396  0.2534726  0.9926551

 Al 
  0.0003750  0.4863819  0.0022177

 Al 
  0.0111702  0.7470954  0.2275494

 Al 
  0.2548834  0.4964197  0.2390488

 Al 
  0.2690770  0.7588708  0.0085639

 Al 
  0.9833102  0.9894597  0.4916069

 Al 
  0.9862705  0.2513762  0.7362012

 Al 
  0.2460225  0.9993985  0.7155735

 Al 
  0.2310764  0.2614004  0.5008737

 Al 
  0.0103831  0.4986832  0.5055356

 Al 
  0.9875167  0.7420709  0.7475657

 Al 
  0.2574266  0.4925127  0.7600812

 Al 
  0.2401911  0.7497723  0.4970657

 Al 
  0.5105812  0.5168655  0.0102965

 Al 
  0.5073375  0.7599030  0.2732278

 Al 
  0.7494047  0.5075318  0.2668804

 Al 
  0.7462415  0.7431971  0.9999381

 Al 
  0.5235917  0.0083597  0.4908470

 Al 
  0.4906255  0.2309910  0.7530605

 Al 
  0.7585367  0.0028093  0.7449371

 Al 
  0.7540196  0.2481486  0.4965125

 Al 
  0.4834686  0.4940807  0.5376392

 Al 
  0.4976338  0.7660116  0.7682132

 Al 
  0.7523514  0.4965757  0.7317781

 Al 
  0.7500285  0.7569279  0.5063103

