32 
charge = 0 
 Al 
  0.0082533  0.9962279  0.9966573

 Al 
  0.9849116  0.2401639  0.2594476

 Al 
  0.2513885  0.0051000  0.2502797

 Al 
  0.2514999  0.2316086  0.9991956

 Al 
  0.5233281  0.0086704  0.0031137

 Al 
  0.5007178  0.2641775  0.2382865

 Al 
  0.7579464  0.0104871  0.2399597

 Al 
  0.7379499  0.2589773  0.9998577

 Al 
  0.9915066  0.4824897  0.0015408

 Al 
  0.0042770  0.7432516  0.2327063

 Al 
  0.2549750  0.5014950  0.2378211

 Al 
  0.2669113  0.7587892  0.0105812

 Al 
  0.9846258  0.9899770  0.4897171

 Al 
  0.9820454  0.2437020  0.7426415

 Al 
  0.2497166  0.0049973  0.7164794

 Al 
  0.2433234  0.2591295  0.5061395

 Al 
  0.0061272  0.5002772  0.5063165

 Al 
  0.9888743  0.7405673  0.7471561

 Al 
  0.2573128  0.4884597  0.7610391

 Al 
  0.2454086  0.7440337  0.4890389

 Al 
  0.5031187  0.5136020  0.0158816

 Al 
  0.5096703  0.7591679  0.2722254

 Al 
  0.7462093  0.5091369  0.2680882

 Al 
  0.7474271  0.7436055  0.9945423

 Al 
  0.5177169  0.0085157  0.4869846

 Al 
  0.4915524  0.2298240  0.7519937

 Al 
  0.7613423  0.0053908  0.7376108

 Al 
  0.7508613  0.2567101  0.5025989

 Al 
  0.4882333  0.4959334  0.5329959

 Al 
  0.4968950  0.7675684  0.7649411

 Al 
  0.7500817  0.4888941  0.7398569

 Al 
  0.7457923  0.7490681  0.5043080

