32 
charge = 0 
 Al 
  0.0143842  0.0004183  0.9906948

 Al 
  0.9826221  0.2500408  0.2567868

 Al 
  0.2545555  0.0027115  0.2538723

 Al 
  0.2503403  0.2331704  0.9973628

 Al 
  0.5279961  0.0039627  0.0021892

 Al 
  0.4967242  0.2697837  0.2379090

 Al 
  0.7590911  0.0071444  0.2431984

 Al 
  0.7432169  0.2631479  0.0051285

 Al 
  0.9856567  0.4804403  0.0012537

 Al 
  0.9978046  0.7405537  0.2381392

 Al 
  0.2536471  0.5041669  0.2390166

 Al 
  0.2639176  0.7590354  0.0107198

 Al 
  0.9882964  0.9907133  0.4889201

 Al 
  0.9826642  0.2382073  0.7486399

 Al 
  0.2510086  0.0069551  0.7196673

 Al 
  0.2533389  0.2562645  0.5074934

 Al 
  0.0019269  0.5016695  0.5054304

 Al 
  0.9921724  0.7399485  0.7476288

 Al 
  0.2545171  0.4870737  0.7636045

 Al 
  0.2499554  0.7402567  0.4848634

 Al 
  0.4979692  0.5102643  0.0178209

 Al 
  0.5104129  0.7572162  0.2683568

 Al 
  0.7444916  0.5093980  0.2676192

 Al 
  0.7499109  0.7446500  0.9919101

 Al 
  0.5109190  0.0095230  0.4859636

 Al 
  0.4938444  0.2312856  0.7505693

 Al 
  0.7611789  0.0057312  0.7341382

 Al 
  0.7465014  0.2626021  0.5058264

 Al 
  0.4936835  0.4984048  0.5247847

 Al 
  0.4968764  0.7673432  0.7587001

 Al 
  0.7473925  0.4851641  0.7480088

 Al 
  0.7429843  0.7427553  0.5037832

