32 
charge = 0 
 Al 
  0.0132617  0.9995978  0.9919187

 Al 
  0.9829093  0.2478961  0.2574093

 Al 
  0.2538810  0.0031372  0.2531001

 Al 
  0.2505643  0.2327298  0.9977315

 Al 
  0.5272499  0.0049973  0.0023279

 Al 
  0.4975645  0.2688010  0.2377395

 Al 
  0.7589043  0.0079476  0.2425499

 Al 
  0.7420548  0.2623694  0.0040505

 Al 
  0.9867457  0.4807522  0.0012846

 Al 
  0.9991943  0.7410611  0.2369747

 Al 
  0.2540419  0.5037189  0.2386355

 Al 
  0.2645921  0.7589736  0.0107977

 Al 
  0.9874016  0.9905376  0.4890525

 Al 
  0.9822930  0.2392419  0.7474135

 Al 
  0.2508341  0.0067534  0.7188679

 Al 
  0.2513118  0.2568573  0.5074130

 Al 
  0.0028142  0.5014195  0.5056705

 Al 
  0.9913705  0.7400475  0.7475051

 Al 
  0.2552126  0.4872333  0.7630278

 Al 
  0.2490137  0.7409782  0.4855477

 Al 
  0.4989629  0.5109524  0.0176316

 Al 
  0.5103188  0.7576754  0.2693654

 Al 
  0.7447960  0.5094265  0.2678283

 Al 
  0.7493255  0.7444037  0.9923519

 Al 
  0.5124029  0.0092656  0.4860725

 Al 
  0.4932503  0.2308252  0.7508490

 Al 
  0.7613769  0.0057980  0.7347198

 Al 
  0.7474741  0.2614846  0.5052906

 Al 
  0.4925251  0.4978516  0.5266880

 Al 
  0.4968653  0.7674967  0.7601703

 Al 
  0.7479989  0.4857656  0.7462267

 Al 
  0.7434867  0.7440052  0.5037869

