32 
charge = 0 
 Al 
  0.0176179  0.0028934  0.9867061

 Al 
  0.9823165  0.2576494  0.2545567

 Al 
  0.2568957  0.0015593  0.2565034

 Al 
  0.2497686  0.2351542  0.9962737

 Al 
  0.5297572  0.0003304  0.0018588

 Al 
  0.4937825  0.2723194  0.2394089

 Al 
  0.7596381  0.0040765  0.2454185

 Al 
  0.7471685  0.2652480  0.0088770

 Al 
  0.9825442  0.4800097  0.0012425

 Al 
  0.9928531  0.7390513  0.2422788

 Al 
  0.2517351  0.5052782  0.2408309

 Al 
  0.2613967  0.7592644  0.0100020

 Al 
  0.9918717  0.9914571  0.4885204

 Al 
  0.9848052  0.2352124  0.7526236

 Al 
  0.2513378  0.0068103  0.7229914

 Al 
  0.2600577  0.2543735  0.5069724

 Al 
  0.9988478  0.5022907  0.5044924

 Al 
  0.9953814  0.7396800  0.7481300

 Al 
  0.2517747  0.4870378  0.7655586

 Al 
  0.2531533  0.7380068  0.4832583

 Al 
  0.4948319  0.5079872  0.0175127

 Al 
  0.5105193  0.7555133  0.2640389

 Al 
  0.7436191  0.5089439  0.2663853

 Al 
  0.7521670  0.7455893  0.9907208

 Al 
  0.5056408  0.0105218  0.4859079

 Al 
  0.4964074  0.2334872  0.7498131

 Al 
  0.7598287  0.0049342  0.7326135

 Al 
  0.7430387  0.2659695  0.5071296

 Al 
  0.4975855  0.5004183  0.5176179

 Al 
  0.4969086  0.7663581  0.7530692

 Al 
  0.7451104  0.4837681  0.7544775

 Al 
  0.7416427  0.7388062  0.5042102

