32 
charge = 0 
 Al 
  0.0183060  0.0034355  0.9857272

 Al 
  0.9824328  0.2597396  0.2539652

 Al 
  0.2575194  0.0013353  0.2571791

 Al 
  0.2496931  0.2358274  0.9960497

 Al 
  0.5300109  0.9993515  0.0017969

 Al 
  0.4929781  0.2727427  0.2400661

 Al 
  0.7597681  0.0031855  0.2460324

 Al 
  0.7481672  0.2656020  0.0099141

 Al 
  0.9819192  0.4801210  0.0012561

 Al 
  0.9914769  0.7387246  0.2434397

 Al 
  0.2510433  0.5054564  0.2414608

 Al 
  0.2606554  0.7593263  0.0096740

 Al 
  0.9929793  0.9917059  0.4884214

 Al 
  0.9856121  0.2345961  0.7536013

 Al 
  0.2513712  0.0065331  0.7240607

 Al 
  0.2617841  0.2539317  0.5066073

 Al 
  0.9980149  0.5023774  0.5042288

 Al 
  0.9963789  0.7396206  0.7482847

 Al 
  0.2509443  0.4871751  0.7660450

 Al 
  0.2539998  0.7374635  0.4830404

 Al 
  0.4940585  0.5074031  0.0171390

 Al 
  0.5104859  0.7550344  0.2626281

 Al 
  0.7434211  0.5087149  0.2658940

 Al 
  0.7528414  0.7458678  0.9904794

 Al 
  0.5041941  0.0108014  0.4859710

 Al 
  0.4972489  0.2342594  0.7496943

 Al 
  0.7592718  0.0045542  0.7323251

 Al 
  0.7420945  0.2667294  0.5073264

 Al 
  0.4985855  0.5009876  0.5155252

 Al 
  0.4969086  0.7659522  0.7514022

 Al 
  0.7444347  0.4835850  0.7563116

 Al 
  0.7414002  0.7378607  0.5044527

