32 
charge = 0 
 Al 
  0.0168197  0.0022685  0.9877704

 Al 
  0.9822905  0.2555010  0.2551804

 Al 
  0.2562435  0.0018291  0.2557831

 Al 
  0.2498874  0.2345243  0.9965410

 Al 
  0.5293933  0.0013465  0.0019331

 Al 
  0.4946092  0.2717576  0.2388458

 Al 
  0.7594971  0.0049725  0.2447948

 Al 
  0.7460943  0.2647728  0.0078202

 Al 
  0.9832979  0.4800109  0.0012338

 Al 
  0.9942589  0.7394275  0.2411019

 Al 
  0.2523637  0.5050381  0.2402455

 Al 
  0.2621331  0.7591988  0.0102767

 Al 
  0.9907938  0.9912244  0.4886256

 Al 
  0.9840750  0.2359450  0.7515618

 Al 
  0.2512821  0.0069860  0.7219692

 Al 
  0.2582310  0.2548673  0.5072459

 Al 
  0.9997079  0.5021608  0.5047646

 Al 
  0.9944124  0.7397456  0.7479791

 Al 
  0.2525915  0.4869635  0.7650314

 Al 
  0.2522697  0.7385971  0.4835837

 Al 
  0.4956636  0.5086060  0.0177590

 Al 
  0.5105242  0.7560009  0.2653804

 Al 
  0.7438369  0.5091295  0.2668172

 Al 
  0.7514999  0.7453146  0.9910042

 Al 
  0.5071308  0.0102322  0.4858757

 Al 
  0.4956079  0.2327744  0.7499814

 Al 
  0.7603138  0.0052485  0.7329662

 Al 
  0.7440139  0.2651119  0.5068536

 Al 
  0.4965212  0.4998416  0.5197082

 Al 
  0.4969036  0.7667096  0.7547263

 Al 
  0.7457799  0.4840491  0.7526224

 Al 
  0.7419497  0.7398433  0.5040196

