32 
charge = 0 
 Al 
  0.0179756  0.0031756  0.9862049

 Al 
  0.9823635  0.2587025  0.2542560

 Al 
  0.2572113  0.0014418  0.2568474

 Al 
  0.2497253  0.2354846  0.9961561

 Al 
  0.5298970  0.9998354  0.0018266

 Al 
  0.4933766  0.2725484  0.2397258

 Al 
  0.7597037  0.0036298  0.2457267

 Al 
  0.7476783  0.2654411  0.0093980

 Al 
  0.9822150  0.4800505  0.0012499

 Al 
  0.9921613  0.7388817  0.2428617

 Al 
  0.2513972  0.5053747  0.2411415

 Al 
  0.2610267  0.7592966  0.0098448

 Al 
  0.9924224  0.9915796  0.4884696

 Al 
  0.9851988  0.2348881  0.7531236

 Al 
  0.2513576  0.0066841  0.7235199

 Al 
  0.2609339  0.2541458  0.5068016

 Al 
  0.9984283  0.5023390  0.5043587

 Al 
  0.9958764  0.7396490  0.7482068

 Al 
  0.2513601  0.4870984  0.7658074

 Al 
  0.2535815  0.7377296  0.4831357

 Al 
  0.4944384  0.5076915  0.0173420

 Al 
  0.5105057  0.7552720  0.2633409

 Al 
  0.7435176  0.5088350  0.2661465

 Al 
  0.7525036  0.7457279  0.9905945

 Al 
  0.5049119  0.0106628  0.4859351

 Al 
  0.4968232  0.2338659  0.7497463

 Al 
  0.7595589  0.0047522  0.7324613

 Al 
  0.7425622  0.2663618  0.5072373

 Al 
  0.4980942  0.5007042  0.5165710

 Al 
  0.4969098  0.7661613  0.7522363

 Al 
  0.7447738  0.4836654  0.7553982

 Al 
  0.7415128  0.7383224  0.5043253

