32 
charge = 0 
 Al 
  0.0159163  0.0015717  0.9889040

 Al 
  0.9823561  0.2533191  0.2558215

 Al 
  0.2555740  0.0021484  0.2550319

 Al 
  0.2500446  0.2339426  0.9968467

 Al 
  0.5289169  0.0023873  0.0020209

 Al 
  0.4954520  0.2710608  0.2383867

 Al 
  0.7593448  0.0058599  0.2441624

 Al 
  0.7449644  0.2641899  0.0067484

 Al 
  0.9841679  0.4801148  0.0012326

 Al 
  0.9956797  0.7398495  0.2399151

 Al 
  0.2529281  0.5047349  0.2397109

 Al 
  0.2628595  0.7591332  0.0104970

 Al 
  0.9897567  0.9910079  0.4887369

 Al 
  0.9834340  0.2367841  0.7504294

 Al 
  0.2511980  0.0070541  0.7210014

 Al 
  0.2563190  0.2554044  0.5074217

 Al 
  0.0005891  0.5019900  0.5050381

 Al 
  0.9934818  0.7398186  0.7478330

 Al 
  0.2533860  0.4869573  0.7644721

 Al 
  0.2513576  0.7392332  0.4840181

 Al 
  0.4965497  0.5092533  0.0178778

 Al 
  0.5105007  0.7564923  0.2666415

 Al 
  0.7440807  0.5092718  0.2671860

 Al 
  0.7508477  0.7450423  0.9913321

 Al 
  0.5086456  0.0099413  0.4858806

 Al 
  0.4948592  0.2321246  0.7501918

 Al 
  0.7607210  0.0054948  0.7333857

 Al 
  0.7450077  0.2641651  0.5064984

 Al 
  0.4954086  0.4992624  0.5217761

 Al 
  0.4968937  0.7670053  0.7563536

 Al 
  0.7464383  0.4844253  0.7507623

 Al 
  0.7423209  0.7409608  0.5038822

