32 
charge = 0 
 Al 
  0.0186068  0.0036731  0.9852742

 Al 
  0.9825256  0.2607594  0.2536842

 Al 
  0.2578189  0.0012413  0.2574972

 Al 
  0.2496708  0.2361789  0.9959544

 Al 
  0.5300963  0.9988775  0.0017697

 Al 
  0.4925870  0.2729011  0.2404287

 Al 
  0.7598287  0.0027437  0.2463356

 Al 
  0.7486325  0.2657307  0.0104240

 Al 
  0.9816593  0.4802213  0.0012623

 Al 
  0.9908024  0.7385798  0.2440127

 Al 
  0.2506745  0.5055220  0.2417900

 Al 
  0.2602829  0.7593560  0.0094921

 Al 
  0.9935436  0.9918370  0.4883731

 Al 
  0.9860415  0.2343337  0.7540567

 Al 
  0.2513799  0.0063574  0.7246114

 Al 
  0.2626046  0.2537325  0.5063945

 Al 
  0.9976103  0.5024033  0.5041000

 Al 
  0.9968863  0.7395933  0.7483627

 Al 
  0.2505247  0.4872667  0.7662715

 Al 
  0.2544082  0.7372110  0.4829724

 Al 
  0.4936934  0.5071234  0.0169063

 Al 
  0.5104599  0.7548005  0.2619004

 Al 
  0.7433295  0.5085850  0.2656255

 Al 
  0.7531805  0.7460064  0.9903730

 Al 
  0.5034924  0.0109363  0.4860155

 Al 
  0.4976820  0.2346654  0.7496547

 Al 
  0.7589699  0.0043414  0.7322051

 Al 
  0.7416378  0.2670722  0.5073957

 Al 
  0.4990595  0.5012660  0.5144820

 Al 
  0.4969061  0.7657294  0.7505680

 Al 
  0.7440956  0.4835293  0.7572175

 Al 
  0.7413049  0.7374251  0.5045914

