32 
charge = 0 
 Al 
  0.0193406  0.0042473  0.9840750

 Al 
  0.9829402  0.2636912  0.2529182

 Al 
  0.2586605  0.0010247  0.2583573

 Al 
  0.2496795  0.2372964  0.9957428

 Al 
  0.5301928  0.9975311  0.0016942

 Al 
  0.4914645  0.2731696  0.2416341

 Al 
  0.7599995  0.0014455  0.2472390

 Al 
  0.7498762  0.2659089  0.0119165

 Al 
  0.9810999  0.4807076  0.0012722

 Al 
  0.9888458  0.7382271  0.2456982

 Al 
  0.2494802  0.5056284  0.2428271

 Al 
  0.2591629  0.7594290  0.0088708

 Al 
  0.9952663  0.9922516  0.4882370

 Al 
  0.9874202  0.2337446  0.7552695

 Al 
  0.2513923  0.0056953  0.7263254

 Al 
  0.2648904  0.2532313  0.5056371

 Al 
  0.9964470  0.5024108  0.5037449

 Al 
  0.9984419  0.7395191  0.7485978

 Al 
  0.2492599  0.4876281  0.7668729

 Al 
  0.2555628  0.7365291  0.4829241

 Al 
  0.4926848  0.5063363  0.0160190

 Al 
  0.5103411  0.7541236  0.2596381

 Al 
  0.7430758  0.5081382  0.2647394

 Al 
  0.7542003  0.7464234  0.9901069

 Al 
  0.5014876  0.0113039  0.4861900

 Al 
  0.4990298  0.2359623  0.7496250

 Al 
  0.7579711  0.0036162  0.7319341

 Al 
  0.7403383  0.2679484  0.5074897

 Al 
  0.5003663  0.5020803  0.5113794

 Al 
  0.4968875  0.7649795  0.7480793

 Al 
  0.7430746  0.4835008  0.7598708

 Al 
  0.7411205  0.7362692  0.5050765

