32 
charge = 0 
 Al 
  0.0195275  0.0043896  0.9837310

 Al 
  0.9831246  0.2646243  0.2526917

 Al 
  0.2589204  0.0009727  0.2586097

 Al 
  0.2497067  0.2376875  0.9956970

 Al 
  0.5301718  0.9971078  0.0016707

 Al 
  0.4911081  0.2731907  0.2420722

 Al 
  0.7600527  0.0010235  0.2475385

 Al 
  0.7502376  0.2658965  0.0124029

 Al 
  0.9809898  0.4809353  0.0012697

 Al 
  0.9882184  0.7381367  0.2462489

 Al 
  0.2490520  0.5056359  0.2431885

 Al 
  0.2587867  0.7594476  0.0086407

 Al 
  0.9958492  0.9923977  0.4881937

 Al 
  0.9879065  0.2336159  0.7556222

 Al 
  0.2513923  0.0054304  0.7269170

 Al 
  0.2655908  0.2530989  0.5053512

 Al 
  0.9960757  0.5023897  0.5036360

 Al 
  0.9989691  0.7394968  0.7486758

 Al 
  0.2488367  0.4877766  0.7670474

 Al 
  0.2559230  0.7363286  0.4829588

 Al 
  0.4923754  0.5060900  0.0156626

 Al 
  0.5102879  0.7539082  0.2588597

 Al 
  0.7429954  0.5079699  0.2644164

 Al 
  0.7545406  0.7465633  0.9900339

 Al 
  0.5008576  0.0114116  0.4862618

 Al 
  0.4994914  0.2364190  0.7496461

 Al 
  0.7576110  0.0033464  0.7318722

 Al 
  0.7399312  0.2681897  0.5074848

 Al 
  0.5007623  0.5023427  0.5103559

 Al 
  0.4968776  0.7647035  0.7472563

 Al 
  0.7427330  0.4835367  0.7607309

 Al 
  0.7410933  0.7359363  0.5052584

