32 
charge = 0 
 Al 
  0.0191241  0.0040790  0.9844476

 Al 
  0.9827793  0.2627358  0.2531595

 Al 
  0.2583907  0.0010866  0.2580862

 Al 
  0.2496646  0.2369140  0.9958022

 Al 
  0.5301866  0.9979679  0.0017177

 Al 
  0.4918296  0.2731140  0.2412133

 Al 
  0.7599451  0.0018724  0.2469395

 Al 
  0.7494876  0.2658841  0.0114252

 Al 
  0.9812497  0.4805133  0.0012710

 Al 
  0.9894869  0.7383323  0.2451413

 Al 
  0.2498936  0.5056074  0.2424731

 Al 
  0.2595367  0.7594067  0.0090899

 Al 
  0.9946871  0.9921093  0.4882803

 Al 
  0.9869474  0.2339080  0.7548908

 Al 
  0.2513898  0.0059378  0.7257438

 Al 
  0.2641590  0.2533810  0.5059081

 Al 
  0.9968257  0.5024207  0.5038575

 Al 
  0.9979184  0.7395426  0.7485186

 Al 
  0.2496832  0.4874932  0.7666861

 Al 
  0.2551891  0.7367445  0.4829142

 Al 
  0.4930078  0.5065900  0.0163457

 Al 
  0.5103869  0.7543451  0.2604054

 Al 
  0.7431575  0.5082966  0.2650488

 Al 
  0.7538612  0.7462848  0.9901874

 Al 
  0.5021373  0.0111876  0.4861244

 Al 
  0.4985743  0.2355168  0.7496188

 Al 
  0.7583177  0.0038723  0.7320108

 Al 
  0.7407591  0.2676823  0.5074774

 Al 
  0.4999505  0.5018130  0.5124090

 Al 
  0.4968950  0.7652431  0.7489060

 Al 
  0.7434162  0.4834872  0.7589971

 Al 
  0.7411650  0.7366281  0.5049045

