32 
charge = 0 
 Al 
  0.0189619  0.0036273  0.9824588

 Al 
  0.9888793  0.2755965  0.2513923

 Al 
  0.2613039  0.0009975  0.2597223

 Al 
  0.2516818  0.2447775  0.9964878

 Al 
  0.5267685  0.9922491  0.0010519

 Al 
  0.4870959  0.2697564  0.2501064

 Al 
  0.7605119  0.9954990  0.2522994

 Al 
  0.7522623  0.2610700  0.0190300

 Al 
  0.9841010  0.4886652  0.0006299

 Al 
  0.9804218  0.7384461  0.2541458

 Al 
  0.2409497  0.5043698  0.2493008

 Al 
  0.2528885  0.7591184  0.0039392

 Al 
  0.0052596  0.9951475  0.4878719

 Al 
  0.9963541  0.2358720  0.7575182

 Al 
  0.2517672  0.9992451  0.7371566

 Al 
  0.2721944  0.2534590  0.4998861

 Al 
  0.9914039  0.5005755  0.5030716

 Al 
  0.0074699  0.7393594  0.7496906

 Al 
  0.2424731  0.4914843  0.7677887

 Al 
  0.2598411  0.7349154  0.4862321

 Al 
  0.4888644  0.5030939  0.0068771

 Al 
  0.5087075  0.7512660  0.2456846

 Al 
  0.7417257  0.5045307  0.2578214

 Al 
  0.7595874  0.7488639  0.9896527

 Al 
  0.4941773  0.0115007  0.4882716

 Al 
  0.5067757  0.2448963  0.7520568

 Al 
  0.7510173  0.9978108  0.7323016

 Al 
  0.7356121  0.2688159  0.5055133

 Al 
  0.5042362  0.5057126  0.4954965

 Al 
  0.4964383  0.7586295  0.7356084

 Al 
  0.7374239  0.4865576  0.7720026

 Al 
  0.7428444  0.7340899  0.5089315

