32 
charge = 0 
 Al 
  0.0199495  0.0045740  0.9820442

 Al 
  0.9858769  0.2719296  0.2514083

 Al 
  0.2607185  0.0008564  0.2599512

 Al 
  0.2505408  0.2416700  0.9958331

 Al 
  0.5288377  0.9938716  0.0013972

 Al 
  0.4883731  0.2719346  0.2466648

 Al 
  0.7604166  0.9975162  0.2502933

 Al 
  0.7521967  0.2640674  0.0165252

 Al 
  0.9817856  0.4845725  0.0010482

 Al 
  0.9831481  0.7379412  0.2510420

 Al 
  0.2445473  0.5051384  0.2467205

 Al 
  0.2553277  0.7594240  0.0060826

 Al 
  0.0013353  0.9939100  0.4879028

 Al 
  0.9927615  0.2340181  0.7575392

 Al 
  0.2514715  0.0021769  0.7327273

 Al 
  0.2704668  0.2527585  0.5022177

 Al 
  0.9930845  0.5016422  0.5030110

 Al 
  0.0039367  0.7393458  0.7493391

 Al 
  0.2450027  0.4896862  0.7679533

 Al 
  0.2586221  0.7351035  0.4843399

 Al 
  0.4900636  0.5041718  0.0111331

 Al 
  0.5095317  0.7521905  0.2512945

 Al 
  0.7422900  0.5060900  0.2608806

 Al 
  0.7575900  0.7478714  0.9896676

 Al 
  0.4961759  0.0118868  0.4872370

 Al 
  0.5038303  0.2411279  0.7506064

 Al 
  0.7538674  0.0003366  0.7318499

 Al 
  0.7369066  0.2692404  0.5066903

 Al 
  0.5034107  0.5044874  0.5013428

 Al 
  0.4966895  0.7615316  0.7400797

 Al 
  0.7395995  0.4848102  0.7678890

 Al 
  0.7416477  0.7341184  0.5072905

