32 
charge = 0 
 Al 
  0.0191971  0.0038389  0.9822991

 Al 
  0.9883137  0.2750631  0.2513465

 Al 
  0.2612445  0.0009690  0.2598312

 Al 
  0.2514628  0.2442379  0.9963480

 Al 
  0.5271793  0.9924905  0.0011237

 Al 
  0.4872729  0.2701871  0.2495297

 Al 
  0.7605081  0.9958133  0.2519529

 Al 
  0.7523130  0.2616653  0.0186290

 Al 
  0.9836209  0.4878942  0.0007153

 Al 
  0.9808326  0.7383273  0.2536335

 Al 
  0.2415734  0.5045146  0.2488627

 Al 
  0.2533018  0.7591901  0.0043154

 Al 
  0.0045938  0.9949272  0.4878632

 Al 
  0.9957440  0.2354772  0.7575937

 Al 
  0.2516967  0.9997686  0.7363881

 Al 
  0.2719989  0.2532882  0.5002698

 Al 
  0.9916650  0.5007846  0.5030296

 Al 
  0.0068734  0.7393458  0.7496411

 Al 
  0.2428865  0.4911589  0.7678655

 Al 
  0.2596740  0.7349092  0.4858695

 Al 
  0.4890500  0.5032647  0.0076457

 Al 
  0.5088634  0.7514083  0.2466462

 Al 
  0.7418284  0.5048030  0.2583721

 Al 
  0.7592607  0.7486882  0.9896441

 Al 
  0.4944409  0.0116133  0.4880748

 Al 
  0.5062918  0.2442354  0.7517722

 Al 
  0.7515024  0.9982550  0.7322026

 Al 
  0.7357829  0.2689508  0.5057398

 Al 
  0.5041520  0.5055195  0.4964581

 Al 
  0.4964890  0.7591604  0.7363249

 Al 
  0.7377890  0.4862197  0.7713616

 Al 
  0.7425981  0.7340293  0.5086493

