32 
charge = 0 
 Al 
  0.0200522  0.0047040  0.9821890

 Al 
  0.9850886  0.2704817  0.2515668

 Al 
  0.2604079  0.0008378  0.2598126

 Al 
  0.2502624  0.2407133  0.9957156

 Al 
  0.5293141  0.9945052  0.0014752

 Al 
  0.4889040  0.2724296  0.2455621

 Al 
  0.7603534  0.9982501  0.2496621

 Al 
  0.7519615  0.2647493  0.0156440

 Al 
  0.9813277  0.4835070  0.0011361

 Al 
  0.9841815  0.7378867  0.2499950

 Al 
  0.2456500  0.5053277  0.2458962

 Al 
  0.2561148  0.7594661  0.0067237

 Al 
  0.0000755  0.9935412  0.4879486

 Al 
  0.9916168  0.2336815  0.7573128

 Al 
  0.2514281  0.0030283  0.7313524

 Al 
  0.2696104  0.2526942  0.5029776

 Al 
  0.9936996  0.5018972  0.5030865

 Al 
  0.0027957  0.7393669  0.7492018

 Al 
  0.2458566  0.4891763  0.7678617

 Al 
  0.2581097  0.7352817  0.4838733

 Al 
  0.4905153  0.5045604  0.0123410

 Al 
  0.5097458  0.7525370  0.2530654

 Al 
  0.7424546  0.5065616  0.2617692

 Al 
  0.7569143  0.7475670  0.9897097

 Al 
  0.4970521  0.0118744  0.4869660

 Al 
  0.5028452  0.2399844  0.7502686

 Al 
  0.7547671  0.0010928  0.7317769

 Al 
  0.7374734  0.2691797  0.5069749

 Al 
  0.5029664  0.5040431  0.5033204

 Al 
  0.4967489  0.7623509  0.7416366

 Al 
  0.7403099  0.4843832  0.7663940

 Al 
  0.7413977  0.7343386  0.5067843

