32 
charge = 0 
 Al 
  0.0180919  0.0028810  0.9831493

 Al 
  0.9907146  0.2769863  0.2516410

 Al 
  0.2613868  0.0010878  0.2592124

 Al 
  0.2524009  0.2464259  0.9969791

 Al 
  0.5253787  0.9915970  0.0007982

 Al 
  0.4866677  0.2683221  0.2518019

 Al 
  0.7604921  0.9946178  0.2533637

 Al 
  0.7519789  0.2590763  0.0201760

 Al 
  0.9857458  0.4911626  0.0003379

 Al 
  0.9793154  0.7388842  0.2556569

 Al 
  0.2390488  0.5039132  0.2506213

 Al 
  0.2516422  0.7588473  0.0027796

 Al 
  0.0072744  0.9958443  0.4879375

 Al 
  0.9981919  0.2372432  0.7571271

 Al 
  0.2520358  0.9976177  0.7395203

 Al 
  0.2725410  0.2540939  0.4987835

 Al 
  0.9906688  0.4998812  0.5032857

 Al 
  0.0092619  0.7394337  0.7498144

 Al 
  0.2412678  0.4925066  0.7674311

 Al 
  0.2602483  0.7350280  0.4874103

 Al 
  0.4883397  0.5026001  0.0044639

 Al 
  0.5081890  0.7508675  0.2427689

 Al 
  0.7413989  0.5036978  0.2560814

 Al 
  0.7605366  0.7494146  0.9897035

 Al 
  0.4935597  0.0110403  0.4889189

 Al 
  0.5081890  0.2469383  0.7530048

 Al 
  0.7495644  0.9964432  0.7326494

 Al 
  0.7352173  0.2682639  0.5047745

 Al 
  0.5043537  0.5062621  0.4926687

 Al 
  0.4962700  0.7569303  0.7335565

 Al 
  0.7363423  0.4876726  0.7737996

 Al 
  0.7436872  0.7344203  0.5097817

