32 
charge = 0 
 Al 
  0.0184087  0.0031471  0.9828845

 Al 
  0.9900809  0.2765593  0.2515395

 Al 
  0.2613757  0.0010581  0.2594129

 Al 
  0.2521521  0.2458727  0.9968046

 Al 
  0.5258663  0.9918024  0.0008898

 Al 
  0.4867927  0.2688221  0.2512450

 Al 
  0.7605057  0.9949000  0.2530048

 Al 
  0.7520940  0.2597730  0.0198035

 Al 
  0.9851653  0.4903025  0.0004406

 Al 
  0.9796619  0.7387258  0.2551582

 Al 
  0.2396849  0.5040679  0.2501807

 Al 
  0.2520581  0.7589476  0.0031694

 Al 
  0.0066024  0.9956067  0.4879078

 Al 
  0.9975806  0.2367568  0.7572843

 Al 
  0.2519368  0.9981684  0.7387246

 Al 
  0.2724655  0.2538624  0.4991411

 Al 
  0.9909039  0.5001238  0.5032003

 Al 
  0.0086667  0.7394028  0.7497785

 Al 
  0.2416613  0.4921588  0.7675721

 Al 
  0.2601282  0.7349748  0.4870044

 Al 
  0.4885092  0.5027610  0.0052844

 Al 
  0.5083696  0.7509962  0.2437441

 Al 
  0.7415103  0.5039775  0.2566754

 Al 
  0.7602260  0.7492265  0.9896824

 Al 
  0.4937367  0.0112148  0.4886936

 Al 
  0.5077261  0.2462502  0.7526744

 Al 
  0.7500470  0.9969036  0.7325244

 Al 
  0.7353287  0.2684731  0.5050295

 Al 
  0.5043364  0.5060839  0.4935993

 Al 
  0.4963294  0.7575132  0.7342211

 Al 
  0.7366999  0.4872853  0.7732241

 Al 
  0.7433889  0.7342854  0.5094983

