32 
charge = 0 
 Al 
  0.0111368  0.9981808  0.9903074

 Al 
  0.0010420  0.2783352  0.2545332

 Al 
  0.2597644  0.0011633  0.2532139

 Al 
  0.2561742  0.2540679  0.0004171

 Al 
  0.5160982  0.9901181  0.9986214

 Al 
  0.4871640  0.2596233  0.2573734

 Al 
  0.7594414  0.9922009  0.2586518

 Al 
  0.7490508  0.2469296  0.0238577

 Al 
  0.9963566  0.5048760  0.9987711

 Al 
  0.9774516  0.7420846  0.2617135

 Al 
  0.2310344  0.5022586  0.2562584

 Al 
  0.2462155  0.7562237  0.9976486

 Al 
  0.0162950  0.9998193  0.4894745

 Al 
  0.0061235  0.2463616  0.7526533

 Al 
  0.2546198  0.9899361  0.7510099

 Al 
  0.2688704  0.2590614  0.4959532

 Al 
  0.9885204  0.4956896  0.5060492

 Al 
  0.0165004  0.7409448  0.7494617

 Al 
  0.2372432  0.4975670  0.7627828

 Al 
  0.2598064  0.7375415  0.4937652

 Al 
  0.4864041  0.5008589  0.9926637

 Al 
  0.5048166  0.7494864  0.2297993

 Al 
  0.7396503  0.4998837  0.2465385

 Al 
  0.7637345  0.7525234  0.9904683

 Al 
  0.4939892  0.0062683  0.4930102

 Al 
  0.5130241  0.2565999  0.7585132

 Al 
  0.7437355  0.9901366  0.7352285

 Al 
  0.7360650  0.2629127  0.5006398

 Al 
  0.5024850  0.5082508  0.4815009

 Al 
  0.4951525  0.7472167  0.7272499

 Al 
  0.7326679  0.4944471  0.7787919

 Al 
  0.7493651  0.7384337  0.5130748

