32 
charge = 0 
 Al 
  0.0116789  0.9984741  0.9897060

 Al 
  0.0003923  0.2785394  0.2543067

 Al 
  0.2599599  0.0011942  0.2537412

 Al 
  0.2559638  0.2536409  0.0001695

 Al 
  0.5167776  0.9901230  0.9988082

 Al 
  0.4869957  0.2602124  0.2572150

 Al 
  0.7595639  0.9922516  0.2583263

 Al 
  0.7492587  0.2477414  0.0237402

 Al 
  0.9956289  0.5040270  0.9988491

 Al 
  0.9773724  0.7418556  0.2614178

 Al 
  0.2314081  0.5022858  0.2559737

 Al 
  0.2464965  0.7564576  0.9978986

 Al 
  0.0157962  0.9995458  0.4893000

 Al 
  0.0057064  0.2457341  0.7530122

 Al 
  0.2543946  0.9903470  0.7503292

 Al 
  0.2693567  0.2586988  0.4959594

 Al 
  0.9885822  0.4959643  0.5057992

 Al 
  0.0161774  0.7407715  0.7495508

 Al 
  0.2373682  0.4972798  0.7632271

 Al 
  0.2599649  0.7372853  0.4933889

 Al 
  0.4865007  0.5009232  0.9933234

 Al 
  0.5050666  0.7495532  0.2304898

 Al 
  0.7397555  0.5000928  0.2471660

 Al 
  0.7636293  0.7523093  0.9903916

 Al 
  0.4938283  0.0066828  0.4927194

 Al 
  0.5128570  0.2560678  0.7581704

 Al 
  0.7440040  0.9904757  0.7350230

 Al 
  0.7358732  0.2633545  0.5009009

 Al 
  0.5026954  0.5081568  0.4820442

 Al 
  0.4952304  0.7478714  0.7274219

 Al 
  0.7327583  0.4939817  0.7786916

 Al 
  0.7489567  0.7381021  0.5129412

