32 
charge = 0 
 Al 
  0.0071729  0.9964135  0.9948035

 Al 
  0.0051631  0.2758329  0.2560368

 Al 
  0.2581642  0.0007648  0.2492587

 Al 
  0.2573486  0.2566680  0.0021212

 Al 
  0.5112309  0.9904138  0.9971548

 Al 
  0.4887753  0.2555678  0.2576729

 Al 
  0.7583597  0.9921984  0.2608151

 Al 
  0.7477464  0.2414645  0.0241708

 Al 
  0.0012586  0.5102594  0.9984295

 Al 
  0.9787659  0.7436501  0.2633521

 Al 
  0.2292448  0.5025704  0.2578387

 Al 
  0.2446339  0.7543760  0.9964160

 Al 
  0.0193518  0.0017388  0.4910178

 Al 
  0.0085590  0.2505359  0.7501844

 Al 
  0.2563425  0.9876627  0.7553525

 Al 
  0.2648062  0.2614833  0.4966314

 Al 
  0.9882964  0.4939298  0.5079377

 Al 
  0.0179830  0.7425350  0.7485323

 Al 
  0.2369994  0.4992711  0.7591778

 Al 
  0.2582298  0.7396775  0.4960249

 Al 
  0.4858200  0.5006844  0.9888273

 Al 
  0.5029937  0.7490557  0.2257821

 Al 
  0.7390315  0.4986189  0.2422529

 Al 
  0.7640265  0.7540481  0.9911502

 Al 
  0.4953455  0.0031125  0.4950522

 Al 
  0.5135513  0.2596802  0.7605948

 Al 
  0.7423865  0.9881974  0.7368360

 Al 
  0.7378323  0.2596369  0.4989666

 Al 
  0.5008861  0.5087743  0.4784305

 Al 
  0.4946315  0.7427256  0.7269826

 Al 
  0.7328610  0.4976523  0.7786025

 Al 
  0.7522016  0.7408012  0.5135934

