32 
charge = 0 
 Al 
  0.0053747  0.9958195  0.9968776

 Al 
  0.0066989  0.2741993  0.2566086

 Al 
  0.2573561  0.0004913  0.2474382

 Al 
  0.2576741  0.2575974  0.0028278

 Al 
  0.5090639  0.9907158  0.9964321

 Al 
  0.4896725  0.2538315  0.2574204

 Al 
  0.7577620  0.9923531  0.2617012

 Al 
  0.7472947  0.2392159  0.0240273

 Al 
  0.0032560  0.5122766  0.9984048

 Al 
  0.9797250  0.7443023  0.2638508

 Al 
  0.2289156  0.5029949  0.2583065

 Al 
  0.2441550  0.7534652  0.9961660

 Al 
  0.0204705  0.0025754  0.4918705

 Al 
  0.0093659  0.2521917  0.7492005

 Al 
  0.2571605  0.9870279  0.7570219

 Al 
  0.2627679  0.2624313  0.4972836

 Al 
  0.9882803  0.4932813  0.5087991

 Al 
  0.0181946  0.7434508  0.7479617

 Al 
  0.2372395  0.4998490  0.7573499

 Al 
  0.2573090  0.7407987  0.4967885

 Al 
  0.4856084  0.5007710  0.9875984

 Al 
  0.5021657  0.7488738  0.2244641

 Al 
  0.7388335  0.4981758  0.2404448

 Al 
  0.7639127  0.7547188  0.9915363

 Al 
  0.4959965  0.0016175  0.4959321

 Al 
  0.5134523  0.2606517  0.7612853

 Al 
  0.7420685  0.9876009  0.7376491

 Al 
  0.7388087  0.2581333  0.4983281

 Al 
  0.5001658  0.5089352  0.4774405

 Al 
  0.4944285  0.7408222  0.7273340

 Al 
  0.7334241  0.4990062  0.7780617

 Al 
  0.7533971  0.7418234  0.5135897

