32 
charge = 0 
 Al 
  0.0047609  0.9956438  0.9975917

 Al 
  0.0071816  0.2735805  0.2567856

 Al 
  0.2570702  0.0003849  0.2468145

 Al 
  0.2577570  0.2578870  0.0030593

 Al 
  0.5083263  0.9908383  0.9961772

 Al 
  0.4899968  0.2532461  0.2572930

 Al 
  0.7575429  0.9924199  0.2619932

 Al 
  0.7471598  0.2384733  0.0239406

 Al 
  0.0039095  0.5129127  0.9984122

 Al 
  0.9800988  0.7445201  0.2639931

 Al 
  0.2288637  0.5031781  0.2584365

 Al 
  0.2440201  0.7531446  0.9961190

 Al 
  0.0208232  0.0028575  0.4921836

 Al 
  0.0096072  0.2527251  0.7488887

 Al 
  0.2574427  0.9868620  0.7575578

 Al 
  0.2620539  0.2627333  0.4975459

 Al 
  0.9882815  0.4930820  0.5090911

 Al 
  0.0182083  0.7437911  0.7477489

 Al 
  0.2373657  0.5000235  0.7566977

 Al 
  0.2569700  0.7412046  0.4970162

 Al 
  0.4855428  0.5008255  0.9872432

 Al 
  0.5018811  0.7488119  0.2240755

 Al 
  0.7387778  0.4980397  0.2398408

 Al 
  0.7638421  0.7549465  0.9916799

 Al 
  0.4962180  0.0010977  0.4962279

 Al 
  0.5133768  0.2609289  0.7614846

 Al 
  0.7419954  0.9874338  0.7379424

 Al 
  0.7391627  0.2576172  0.4981251

 Al 
  0.4999245  0.5089822  0.4771472

 Al 
  0.4943641  0.7401874  0.7275098

 Al 
  0.7336815  0.4994567  0.7778204

 Al 
  0.7537931  0.7421638  0.5135587

