32 
charge = 0 
 Al 
  0.0077583  0.9966338  0.9941327

 Al 
  0.0046211  0.2763019  0.2558351

 Al 
  0.2584167  0.0008415  0.2498503

 Al 
  0.2572162  0.2563351  0.0018823

 Al 
  0.5119412  0.9903371  0.9973826

 Al 
  0.4885030  0.2561445  0.2577100

 Al 
  0.7585392  0.9921662  0.2605156

 Al 
  0.7479122  0.2422244  0.0241807

 Al 
  0.0005804  0.5095490  0.9984543

 Al 
  0.9784986  0.7434298  0.2631602

 Al 
  0.2294131  0.5024689  0.2576556

 Al 
  0.2448196  0.7546631  0.9965361

 Al 
  0.0189570  0.0014628  0.4907604

 Al 
  0.0082595  0.2499666  0.7505260

 Al 
  0.2560801  0.9879202  0.7547745

 Al 
  0.2654497  0.2611542  0.4964606

 Al 
  0.9883100  0.4941612  0.5076556

 Al 
  0.0178556  0.7422640  0.7486993

 Al 
  0.2369660  0.4990582  0.7597483

 Al 
  0.2585045  0.7393334  0.4957428

 Al 
  0.4858943  0.5006769  0.9892914

 Al 
  0.5032635  0.7491151  0.2262722

 Al 
  0.7391070  0.4987798  0.2428568

 Al 
  0.7640327  0.7538265  0.9910351

 Al 
  0.4951351  0.0035902  0.4947602

 Al 
  0.5135426  0.2593102  0.7603349

 Al 
  0.7425251  0.9884276  0.7365848

 Al 
  0.7375365  0.2601233  0.4991906

 Al 
  0.5011237  0.5087112  0.4787993

 Al 
  0.4947020  0.7433605  0.7269256

 Al 
  0.7327410  0.4971994  0.7787226

 Al 
  0.7517994  0.7404609  0.5135637

