32 
charge = 0 
 Al 
  0.0083362  0.9968653  0.9934706

 Al 
  0.0040629  0.2767351  0.2556284

 Al 
  0.2586617  0.0009121  0.2504319

 Al 
  0.2570702  0.2559910  0.0016410

 Al 
  0.5126442  0.9902703  0.9976041

 Al 
  0.4882432  0.2567200  0.2577224

 Al 
  0.7587112  0.9921427  0.2602148

 Al 
  0.7480855  0.2429892  0.0241733

 Al 
  0.9998948  0.5088201  0.9984877

 Al 
  0.9782585  0.7432095  0.2629548

 Al 
  0.2296099  0.5023873  0.2574588

 Al 
  0.2450176  0.7549416  0.9966759

 Al 
  0.0185486  0.0011881  0.4905153

 Al 
  0.0079452  0.2493874  0.7508725

 Al 
  0.2558240  0.9882011  0.7541830

 Al 
  0.2660735  0.2608188  0.4963133

 Al 
  0.9883285  0.4943988  0.5073771

 Al 
  0.0177009  0.7420078  0.7488540

 Al 
  0.2369549  0.4988367  0.7602990

 Al 
  0.2587619  0.7390030  0.4954482

 Al 
  0.4859722  0.5006819  0.9897839

 Al 
  0.5035283  0.7491758  0.2267895

 Al 
  0.7391862  0.4989456  0.2434620

 Al 
  0.7640228  0.7536075  0.9909274

 Al 
  0.4949285  0.0040592  0.4944681

 Al 
  0.5135117  0.2589166  0.7600626

 Al 
  0.7426823  0.9886738  0.7363410

 Al 
  0.7372543  0.2606034  0.4994183

 Al 
  0.5013588  0.5086456  0.4791891

 Al 
  0.4947750  0.7439978  0.7268984

 Al 
  0.7326518  0.4967452  0.7788117

 Al 
  0.7513960  0.7401205  0.5135191

