32 
charge = 0 
 Al 
  0.0059824  0.9960064  0.9961759

 Al 
  0.0062014  0.2747810  0.2564242

 Al 
  0.2576333  0.0005903  0.2480533

 Al 
  0.2575788  0.2572991  0.0025939

 Al 
  0.5097941  0.9906032  0.9966796

 Al 
  0.4893607  0.2544119  0.2575269

 Al 
  0.7579711  0.9922925  0.2614066

 Al 
  0.7474370  0.2399609  0.0240941

 Al 
  0.0025964  0.5116232  0.9984048

 Al 
  0.9793785  0.7440857  0.2636973

 Al 
  0.2289973  0.5028340  0.2581642

 Al 
  0.2443023  0.7537770  0.9962304

 Al 
  0.0201092  0.0022944  0.4915722

 Al 
  0.0091122  0.2516497  0.7495211

 Al 
  0.2568821  0.9872160  0.7564762

 Al 
  0.2634647  0.2621232  0.4970435

 Al 
  0.9882815  0.4934892  0.5085095

 Al 
  0.0181526  0.7431278  0.7481647

 Al 
  0.2371355  0.4996659  0.7579798

 Al 
  0.2576333  0.7404101  0.4965472

 Al 
  0.4856765  0.5007302  0.9879808

 Al 
  0.5024454  0.7489357  0.2248787

 Al 
  0.7388954  0.4983182  0.2410475

 Al 
  0.7639659  0.7544936  0.9914002

 Al 
  0.4957774  0.0021261  0.4956388

 Al 
  0.5135055  0.2603510  0.7610700

 Al 
  0.7421576  0.9877840  0.7373682

 Al 
  0.7384696  0.2586419  0.4985360

 Al 
  0.5004072  0.5088857  0.4777523

 Al 
  0.4944941  0.7414571  0.7271880

 Al 
  0.7332026  0.4985558  0.7782721

 Al 
  0.7529999  0.7414819  0.5136058

