32 
charge = 0 
 Al 
  0.0035060  0.9953257  0.9990520

 Al 
  0.0081073  0.2722279  0.2571209

 Al 
  0.2564700  0.0001485  0.2455448

 Al 
  0.2578820  0.2584352  0.0035184

 Al 
  0.5068252  0.9911205  0.9956438

 Al 
  0.4906812  0.2520618  0.2569761

 Al 
  0.7570702  0.9925759  0.2625786

 Al 
  0.7469172  0.2369945  0.0237067

 Al 
  0.0051990  0.5141330  0.9984518

 Al 
  0.9809304  0.7449532  0.2642431

 Al 
  0.2288463  0.5036050  0.2586580

 Al 
  0.2437874  0.7524776  0.9960806

 Al 
  0.0215014  0.0034318  0.4928568

 Al 
  0.0100453  0.2537647  0.7482934

 Al 
  0.2580231  0.9866059  0.7586011

 Al 
  0.2605787  0.2633149  0.4981350

 Al 
  0.9882914  0.4927083  0.5096777

 Al 
  0.0181489  0.7445300  0.7472848

 Al 
  0.2376912  0.5003502  0.7553302

 Al 
  0.2562386  0.7420647  0.4974308

 Al 
  0.4854190  0.5009690  0.9866170

 Al 
  0.5013019  0.7486832  0.2233701

 Al 
  0.7386825  0.4977848  0.2386280

 Al 
  0.7636503  0.7554057  0.9919942

 Al 
  0.4966635  0.0000248  0.4968232

 Al 
  0.5131652  0.2614140  0.7618336

 Al 
  0.7418964  0.9871467  0.7385637

 Al 
  0.7399139  0.2565603  0.4977340

 Al 
  0.4994431  0.5090614  0.4766088

 Al 
  0.4942416  0.7389127  0.7279479

 Al 
  0.7343040  0.5003589  0.7772462

 Al 
  0.7545777  0.7428444  0.5134474

