32 
charge = 0 
 Al 
  0.0022189  0.9950510  0.0005606

 Al 
  0.0089798  0.2707230  0.2574254

 Al 
  0.2558314  0.9998800  0.2442441

 Al 
  0.2579476  0.2589476  0.0039689

 Al 
  0.5052881  0.9914484  0.9950819

 Al 
  0.4914113  0.2508576  0.2565851

 Al 
  0.7565517  0.9927541  0.2631615

 Al 
  0.7467081  0.2355230  0.0233862

 Al 
  0.0064663  0.5152802  0.9985224

 Al 
  0.9818759  0.7453913  0.2644473

 Al 
  0.2289441  0.5041149  0.2588275

 Al 
  0.2436043  0.7517784  0.9961165

 Al 
  0.0221462  0.0040184  0.4935931

 Al 
  0.0104265  0.2547646  0.7477452

 Al 
  0.2586196  0.9864475  0.7596109

 Al 
  0.2590466  0.2638644  0.4988070

 Al 
  0.9883087  0.4923754  0.5102643

 Al 
  0.0179731  0.7453480  0.7467749

 Al 
  0.2381120  0.5006472  0.7538723

 Al 
  0.2554416  0.7429966  0.4977922

 Al 
  0.4853064  0.5011658  0.9861022

 Al 
  0.5007066  0.7485483  0.2227600

 Al 
  0.7386082  0.4975509  0.2374053

 Al 
  0.7633904  0.7558710  0.9923457

 Al 
  0.4971103  0.9989035  0.4974234

 Al 
  0.5128719  0.2618063  0.7621120

 Al 
  0.7418618  0.9869252  0.7392406

 Al 
  0.7407220  0.2554700  0.4973640

 Al 
  0.4989642  0.5091258  0.4761361

 Al 
  0.4941265  0.7376330  0.7284986

 Al 
  0.7350762  0.5012623  0.7765507

 Al 
  0.7553525  0.7435251  0.5132741

