32 
charge = 0 
 Al 
  0.0002351  0.9947255  0.0029095

 Al 
  0.0101926  0.2681847  0.2578152

 Al 
  0.2547993  0.9994134  0.2422405

 Al 
  0.2579266  0.2596480  0.0046260

 Al 
  0.5029206  0.9920276  0.9941884

 Al 
  0.4925808  0.2490038  0.2558735

 Al 
  0.7556854  0.9930548  0.2640352

 Al 
  0.7464655  0.2333276  0.0227353

 Al 
  0.0083152  0.5168606  0.9986770

 Al 
  0.9835082  0.7460559  0.2646701

 Al 
  0.2293042  0.5050307  0.2589884

 Al 
  0.2434162  0.7506720  0.9963022

 Al 
  0.0230546  0.0049205  0.4948220

 Al 
  0.0108918  0.2561829  0.7470323

 Al 
  0.2595354  0.9864041  0.7610601

 Al 
  0.2566630  0.2646218  0.4999567

 Al 
  0.9883459  0.4919620  0.5111319

 Al 
  0.0174905  0.7467266  0.7459284

 Al 
  0.2389238  0.5010470  0.7515160

 Al 
  0.2541211  0.7445300  0.4982365

 Al 
  0.4851641  0.5015618  0.9855453

 Al 
  0.4997847  0.7483330  0.2220274

 Al 
  0.7385414  0.4972427  0.2355552

 Al 
  0.7628645  0.7565776  0.9929459

 Al 
  0.4977736  0.9971301  0.4983342

 Al 
  0.5122840  0.2622160  0.7623818

 Al 
  0.7419286  0.9867185  0.7403643

 Al 
  0.7420388  0.2537746  0.4968554

 Al 
  0.4982612  0.5091864  0.4755383

 Al 
  0.4939731  0.7357086  0.7295332

 Al 
  0.7365242  0.5026137  0.7752822

 Al 
  0.7564848  0.7445411  0.5128905

