32 
charge = 0 
 Al 
  0.9968615  0.9944099  0.0069947

 Al 
  0.0119462  0.2632790  0.2582484

 Al 
  0.2528996  0.9984766  0.2388310

 Al 
  0.2575417  0.2606257  0.0056544

 Al 
  0.4988763  0.9931959  0.9926031

 Al 
  0.4946612  0.2458084  0.2544243

 Al 
  0.7540208  0.9935808  0.2654658

 Al 
  0.7462613  0.2297485  0.0211673

 Al 
  0.0111913  0.5190597  0.9990372

 Al 
  0.9867692  0.7471932  0.2648161

 Al 
  0.2304515  0.5068945  0.2590107

 Al 
  0.2433370  0.7487476  0.9969407

 Al 
  0.0243985  0.0064638  0.4971883

 Al 
  0.0113559  0.2582706  0.7462440

 Al 
  0.2610428  0.9868657  0.7632642

 Al 
  0.2526014  0.2656601  0.5021719

 Al 
  0.9884139  0.4915722  0.5124660

 Al 
  0.0161143  0.7494072  0.7443493

 Al 
  0.2407307  0.5016311  0.7471944

 Al 
  0.2516422  0.7474160  0.4987179

 Al 
  0.4850218  0.5024726  0.9852099

 Al 
  0.4981981  0.7479432  0.2213059

 Al 
  0.7385686  0.4968504  0.2324600

 Al 
  0.7616219  0.7577348  0.9941476

 Al 
  0.4988082  0.9939718  0.4998602

 Al 
  0.5109339  0.2624202  0.7623930

 Al 
  0.7423568  0.9867284  0.7425350

 Al 
  0.7444730  0.2508279  0.4961598

 Al 
  0.4971709  0.5091827  0.4748453

 Al 
  0.4937800  0.7325603  0.7317620

 Al 
  0.7396961  0.5048154  0.7726066

 Al 
  0.7582533  0.7461846  0.5119252

