32 
charge = 0 
 Al 
  0.0009034  0.9948233  0.0021162

 Al 
  0.0098015  0.2690671  0.2576952

 Al 
  0.2551532  0.9995780  0.2429150

 Al 
  0.2579501  0.2594240  0.0044094

 Al 
  0.5037176  0.9918234  0.9944928

 Al 
  0.4921811  0.2496275  0.2561259

 Al 
  0.7559861  0.9929508  0.2637444

 Al 
  0.7465361  0.2340577  0.0229766

 Al 
  0.0077063  0.5163532  0.9986189

 Al 
  0.9829353  0.7458331  0.2646082

 Al 
  0.2291557  0.5047065  0.2589476

 Al 
  0.2434669  0.7510470  0.9962230

 Al 
  0.0227600  0.0046161  0.4943951

 Al 
  0.0107519  0.2557225  0.7472526

 Al 
  0.2592285  0.9863930  0.7605861

 Al 
  0.2574662  0.2643780  0.4995557

 Al 
  0.9883323  0.4920870  0.5108460

 Al 
  0.0176798  0.7462477  0.7462217

 Al 
  0.2386293  0.5009195  0.7523229

 Al 
  0.2545777  0.7440003  0.4981016

 Al 
  0.4852074  0.5014158  0.9857012

 Al 
  0.5000953  0.7484060  0.2222477

 Al 
  0.7385575  0.4973392  0.2361740

 Al 
  0.7630575  0.7563413  0.9927355

 Al 
  0.4975546  0.9977328  0.4980298

 Al 
  0.5124994  0.2621034  0.7623125

 Al 
  0.7418903  0.9867705  0.7399745

 Al 
  0.7415871  0.2543476  0.4970187

 Al 
  0.4984926  0.5091703  0.4757227

 Al 
  0.4940213  0.7363497  0.7291607

 Al 
  0.7360032  0.5021645  0.7757351

 Al 
  0.7561123  0.7442033  0.5130352

