32 
charge = 0 
 Al 
  0.9948814  0.9943542  0.0094649

 Al 
  0.0128187  0.2600453  0.2583486

 Al 
  0.2516880  0.9978429  0.2368224

 Al 
  0.2570900  0.2610873  0.0062138

 Al 
  0.4964816  0.9939879  0.9916477

 Al 
  0.4959222  0.2438679  0.2534577

 Al 
  0.7529244  0.9938716  0.2662801

 Al 
  0.7462663  0.2277152  0.0199408

 Al 
  0.0127147  0.5200658  0.9992896

 Al 
  0.9889758  0.7478838  0.2647666

 Al 
  0.2314316  0.5081469  0.2588857

 Al 
  0.2434211  0.7476127  0.9974803

 Al 
  0.0250755  0.0073833  0.4987662

 Al 
  0.0114264  0.2593003  0.7460819

 Al 
  0.2618645  0.9874561  0.7644102

 Al 
  0.2502438  0.2661118  0.5035926

 Al 
  0.9884461  0.4915623  0.5131318

 Al 
  0.0149844  0.7511980  0.7433592

 Al 
  0.2420425  0.5019591  0.7444532

 Al 
  0.2500507  0.7492946  0.4988590

 Al 
  0.4850181  0.5031360  0.9853671

 Al 
  0.4972489  0.7477056  0.2211883

 Al 
  0.7386912  0.4966957  0.2306482

 Al 
  0.7606703  0.7583795  0.9949780

 Al 
  0.4993466  0.9920128  0.5007549

 Al 
  0.5099438  0.2622642  0.7621145

 Al 
  0.7427961  0.9869499  0.7439867

 Al 
  0.7460262  0.2490446  0.4958616

 Al 
  0.4965967  0.5091109  0.4746151

 Al 
  0.4937132  0.7307930  0.7333412

 Al 
  0.7419954  0.5060542  0.7707304

 Al 
  0.7592013  0.7471103  0.5111616

