32 
charge = 0 
 Al 
  0.9924187  0.9944186  0.0126269

 Al 
  0.0137419  0.2556099  0.2582781

 Al 
  0.2500693  0.9969556  0.2343250

 Al 
  0.2562534  0.2615465  0.0068672

 Al 
  0.4934805  0.9950931  0.9904559

 Al 
  0.4975187  0.2413333  0.2521422

 Al 
  0.7514145  0.9941760  0.2672689

 Al 
  0.7464160  0.2252488  0.0180152

 Al 
  0.0143990  0.5209866  0.9996349

 Al 
  0.9920598  0.7487921  0.2645513

 Al 
  0.2329984  0.5098386  0.2585837

 Al 
  0.2436637  0.7462341  0.9982984

 Al 
  0.0257871  0.0085466  0.5009826

 Al 
  0.0112618  0.2603435  0.7462985

 Al 
  0.2627531  0.9885686  0.7656539

 Al 
  0.2473887  0.2664621  0.5054577

 Al 
  0.9884622  0.4918507  0.5137691

 Al 
  0.0132085  0.7537102  0.7420907

 Al 
  0.2439694  0.5023959  0.7407901

 Al 
  0.2479258  0.7518724  0.4988899

 Al 
  0.4851344  0.5040728  0.9859698

 Al 
  0.4960435  0.7474160  0.2214086

 Al 
  0.7390018  0.4965769  0.2283612

 Al 
  0.7592124  0.7591258  0.9961772

 Al 
  0.4999220  0.9894337  0.5018860

 Al 
  0.5084959  0.2617667  0.7614103

 Al 
  0.7435659  0.9874845  0.7460188

 Al 
  0.7481102  0.2467390  0.4956376

 Al 
  0.4959643  0.5089228  0.4745285

 Al 
  0.4937058  0.7287139  0.7356109

 Al 
  0.7453765  0.5075330  0.7680375

 Al 
  0.7602792  0.7482328  0.5099735

