32 
charge = 0 
 Al 
  0.9936167  0.9943679  0.0110737

 Al 
  0.0133162  0.2578313  0.2583436

 Al 
  0.2508750  0.9974024  0.2355403

 Al 
  0.2567039  0.2613385  0.0065554

 Al 
  0.4949446  0.9945374  0.9910339

 Al 
  0.4967378  0.2425882  0.2527994

 Al 
  0.7521719  0.9940387  0.2667912

 Al 
  0.7463220  0.2264405  0.0190151

 Al 
  0.0136132  0.5205881  0.9994629

 Al 
  0.9905067  0.7483417  0.2646800

 Al 
  0.2321841  0.5089971  0.2587520

 Al 
  0.2435251  0.7468987  0.9978813

 Al 
  0.0254616  0.0079773  0.4998639

 Al 
  0.0113806  0.2598733  0.7461264

 Al 
  0.2623447  0.9879684  0.7650760

 Al 
  0.2487649  0.2663247  0.5045381

 Al 
  0.9884585  0.4916625  0.5134907

 Al 
  0.0141280  0.7524429  0.7427108

 Al 
  0.2429867  0.5021756  0.7426118

 Al 
  0.2489802  0.7505792  0.4988961

 Al 
  0.4850577  0.5036025  0.9856158

 Al 
  0.4966338  0.7475546  0.2212452

 Al 
  0.7388248  0.4966239  0.2294812

 Al 
  0.7599649  0.7587718  0.9955671

 Al 
  0.4996572  0.9907121  0.5013316

 Al 
  0.5092335  0.2620539  0.7618088

 Al 
  0.7431575  0.9871838  0.7449941

 Al 
  0.7470719  0.2478763  0.4957230

 Al 
  0.4962588  0.5090293  0.4745409

 Al 
  0.4936971  0.7297065  0.7344612

 Al 
  0.7436513  0.5068227  0.7694025

 Al 
  0.7597706  0.7476895  0.5105886

