32 
charge = 0 
 Al 
  0.9942416  0.9943567  0.0102742

 Al 
  0.0130761  0.2589414  0.2583535

 Al 
  0.2512809  0.9976226  0.2361740

 Al 
  0.2569056  0.2612185  0.0063871

 Al 
  0.4957057  0.9942614  0.9913371

 Al 
  0.4963343  0.2432256  0.2531286

 Al 
  0.7525494  0.9939582  0.2665388

 Al 
  0.7462898  0.2270680  0.0194879

 Al 
  0.0131776  0.5203418  0.9993763

 Al 
  0.9897369  0.7481140  0.2647282

 Al 
  0.2317992  0.5085714  0.2588238

 Al 
  0.2434681  0.7472501  0.9976771

 Al 
  0.0252760  0.0076828  0.4993119

 Al 
  0.0114128  0.2595985  0.7460881

 Al 
  0.2621120  0.9877011  0.7647530

 Al 
  0.2494926  0.2662282  0.5040679

 Al 
  0.9884523  0.4916019  0.5133211

 Al 
  0.0145649  0.7518167  0.7430325

 Al 
  0.2425090  0.5020667  0.7435313

 Al 
  0.2495149  0.7499356  0.4988825

 Al 
  0.4850329  0.5033686  0.9854784

 Al 
  0.4969395  0.7476288  0.2212032

 Al 
  0.7387530  0.4966561  0.2300592

 Al 
  0.7603237  0.7585800  0.9952688

 Al 
  0.4995075  0.9913606  0.5010457

 Al 
  0.5095923  0.2621690  0.7619734

 Al 
  0.7429706  0.9870588  0.7444879

 Al 
  0.7465484  0.2484568  0.4957861

 Al 
  0.4964234  0.5090738  0.4745693

 Al 
  0.4937020  0.7302386  0.7338956

 Al 
  0.7428122  0.5064452  0.7700720

 Al 
  0.7594933  0.7474036  0.5108819

