32 
charge = 0 
 Al 
  0.9867964  0.9952824  0.0204272

 Al 
  0.0147777  0.2424137  0.2565665

 Al 
  0.2456487  0.9942849  0.2287845

 Al 
  0.2521546  0.2619536  0.0080813

 Al 
  0.4865786  0.9984134  0.9881739

 Al 
  0.5013093  0.2341901  0.2483627

 Al 
  0.7468603  0.9941488  0.2692899

 Al 
  0.7477278  0.2200646  0.0102544

 Al 
  0.0164014  0.5206710  0.0004678

 Al 
  0.0014937  0.7514281  0.2628013

 Al 
  0.2391330  0.5140884  0.2569935

 Al 
  0.2450597  0.7437652  0.0006237

 Al 
  0.0261794  0.0114908  0.5082496

 Al 
  0.0088053  0.2609215  0.7505977

 Al 
  0.2630340  0.9940288  0.7669187

 Al 
  0.2417603  0.2653309  0.5099698

 Al 
  0.9883892  0.4950200  0.5131677

 Al 
  0.0065182  0.7618670  0.7395735

 Al 
  0.2504789  0.5041434  0.7305381

 Al 
  0.2422368  0.7598064  0.4981746

 Al 
  0.4866529  0.5063772  0.9902406

 Al 
  0.4931031  0.7470744  0.2249406

 Al 
  0.7413061  0.4966264  0.2225397

 Al 
  0.7536211  0.7602619  0.0003440

 Al 
  0.5004455  0.9822051  0.5049144

 Al 
  0.5036372  0.2586369  0.7568499

 Al 
  0.7470039  0.9907084  0.7523959

 Al 
  0.7541396  0.2405215  0.4964333

 Al 
  0.4951896  0.5076085  0.4758354

 Al 
  0.4945634  0.7252661  0.7429830

 Al 
  0.7570553  0.5105032  0.7591815

 Al 
  0.7619412  0.7508972  0.5053228

