32 
charge = 0 
 Al 
  0.9897876  0.9946711  0.0161477

 Al 
  0.0144919  0.2501992  0.2578659

 Al 
  0.2481672  0.9958616  0.2316766

 Al 
  0.2548933  0.2618806  0.0075071

 Al 
  0.4902505  0.9964556  0.9892369

 Al 
  0.4992562  0.2383632  0.2505656

 Al 
  0.7495631  0.9943679  0.2682825

 Al 
  0.7467972  0.2227018  0.0152554

 Al 
  0.0158160  0.5214358  0.0000347

 Al 
  0.9958925  0.7498713  0.2640612

 Al 
  0.2352235  0.5117853  0.2580479

 Al 
  0.2441253  0.7448777  0.9993330

 Al 
  0.0263081  0.0098374  0.5038030

 Al 
  0.0106455  0.2610613  0.7473034

 Al 
  0.2633892  0.9903817  0.7666650

 Al 
  0.2445139  0.2664460  0.5075405

 Al 
  0.9884412  0.4926910  0.5140538

 Al 
  0.0107247  0.7568994  0.7407579

 Al 
  0.2464989  0.5029850  0.7364623

 Al 
  0.2454482  0.7550554  0.4987241

 Al 
  0.4855057  0.5051730  0.9872531

 Al 
  0.4947094  0.7471499  0.2222687

 Al 
  0.7396453  0.4965435  0.2258131

 Al 
  0.7571791  0.7598126  0.9977538

 Al 
  0.5003713  0.9864103  0.5031595

 Al 
  0.5066111  0.2607779  0.7600391

 Al 
  0.7447527  0.9884882  0.7485681

 Al 
  0.7505977  0.2440906  0.4956673

 Al 
  0.4954247  0.5085429  0.4747624

 Al 
  0.4938580  0.7267400  0.7385167

 Al 
  0.7498465  0.5090156  0.7645735

 Al 
  0.7612631  0.7494270  0.5082979

