32 
charge = 0 
 Al 
  0.9893310  0.9947379  0.0167776

 Al 
  0.0145871  0.2491609  0.2577434

 Al 
  0.2478132  0.9956500  0.2312237

 Al 
  0.2545864  0.2619177  0.0076098

 Al 
  0.4896886  0.9967180  0.9890401

 Al 
  0.4995619  0.2378026  0.2502673

 Al 
  0.7492067  0.9943778  0.2684508

 Al 
  0.7468950  0.2222736  0.0146676

 Al 
  0.0160029  0.5214358  0.0001040

 Al 
  0.9966351  0.7500780  0.2639362

 Al 
  0.2356925  0.5121343  0.2579266

 Al 
  0.2442317  0.7446649  0.9995260

 Al 
  0.0263588  0.0100700  0.5043649

 Al 
  0.0104710  0.2611269  0.7476028

 Al 
  0.2634412  0.9907913  0.7667888

 Al 
  0.2440448  0.2663804  0.5079080

 Al 
  0.9884337  0.4929199  0.5140364

 Al 
  0.0102099  0.7575318  0.7405401

 Al 
  0.2470063  0.5031125  0.7356505

 Al 
  0.2449916  0.7556742  0.4986696

 Al 
  0.4856109  0.5053685  0.9875699

 Al 
  0.4944718  0.7471140  0.2225150

 Al 
  0.7398099  0.4965472  0.2253490

 Al 
  0.7567534  0.7599129  0.9980744

 Al 
  0.5004232  0.9858410  0.5033946

 Al 
  0.5062348  0.2605428  0.7597062

 Al 
  0.7450126  0.9887270  0.7490681

 Al 
  0.7510705  0.2436006  0.4957156

 Al 
  0.4953517  0.5084476  0.4748515

 Al 
  0.4939124  0.7264393  0.7390909

 Al 
  0.7507512  0.5092607  0.7638855

 Al 
  0.7614079  0.7496386  0.5079452

