32 
charge = 0 
 Al 
  0.9854846  0.9957539  0.0224853

 Al 
  0.0142542  0.2373051  0.2551643

 Al 
  0.2442825  0.9932751  0.2277164

 Al 
  0.2496671  0.2617185  0.0081308

 Al 
  0.4850267  0.9996634  0.9881862

 Al 
  0.5023291  0.2314341  0.2469445

 Al 
  0.7450349  0.9935387  0.2694978

 Al 
  0.7485892  0.2193047  0.0060257

 Al 
  0.0155277  0.5190337  0.0005606

 Al 
  0.0051582  0.7524603  0.2614190

 Al 
  0.2423494  0.5150166  0.2561049

 Al 
  0.2458208  0.7437812  0.0010816

 Al 
  0.0251658  0.0124969  0.5115910

 Al 
  0.0067794  0.2599104  0.7544391

 Al 
  0.2615205  0.9973702  0.7659831

 Al 
  0.2410995  0.2635538  0.5110205

 Al 
  0.9884548  0.4974679  0.5113113

 Al 
  0.0032696  0.7654930  0.7396565

 Al 
  0.2533278  0.5053030  0.7269281

 Al 
  0.2405265  0.7631083  0.4976820

 Al 
  0.4879919  0.5065999  0.9931043

 Al 
  0.4923333  0.7473887  0.2280803

 Al 
  0.7431451  0.4966920  0.2207069

 Al 
  0.7506658  0.7600812  0.0023613

 Al 
  0.5000025  0.9794825  0.5061532

 Al 
  0.5014269  0.2567076  0.7536409

 Al 
  0.7489332  0.9928172  0.7549998

 Al 
  0.7565207  0.2383087  0.4975880

 Al 
  0.4955782  0.5066346  0.4771682

 Al 
  0.4955572  0.7255742  0.7461908

 Al 
  0.7624387  0.5109871  0.7552733

 Al 
  0.7617358  0.7517363  0.5028031

