32 
charge = 0 
 Al 
  0.9853386  0.9958232  0.0227291

 Al 
  0.0141008  0.2365081  0.2548995

 Al 
  0.2441030  0.9931229  0.2276323

 Al 
  0.2492141  0.2616591  0.0081048

 Al 
  0.4848658  0.9998540  0.9882568

 Al 
  0.5024627  0.2309985  0.2467242

 Al 
  0.7447453  0.9934001  0.2694817

 Al 
  0.7487389  0.2192874  0.0052770

 Al 
  0.0152765  0.5186773  0.0005532

 Al 
  0.0057225  0.7526212  0.2611443

 Al 
  0.2429162  0.5150995  0.2559490

 Al 
  0.2459482  0.7438506  0.0011039

 Al 
  0.0249059  0.0126528  0.5121566

 Al 
  0.0063895  0.2596728  0.7551965

 Al 
  0.2611554  0.9979852  0.7657319

 Al 
  0.2410982  0.2631701  0.5111319

 Al 
  0.9884870  0.4979308  0.5108918

 Al 
  0.0027214  0.7660945  0.7397641

 Al 
  0.2537907  0.5055294  0.7263923

 Al 
  0.2403025  0.7636404  0.4976028

 Al 
  0.4882580  0.5065677  0.9936303

 Al 
  0.4922417  0.7474778  0.2287114

 Al 
  0.7435102  0.4966957  0.2204544

 Al 
  0.7501411  0.7600094  0.0027078

 Al 
  0.4998874  0.9790592  0.5063648

 Al 
  0.5010556  0.2563623  0.7530308

 Al 
  0.7492748  0.9932058  0.7554106

 Al 
  0.7569031  0.2379734  0.4978306

 Al 
  0.4956982  0.5064477  0.4774380

 Al 
  0.4957688  0.7257475  0.7467217

 Al 
  0.7633372  0.5110193  0.7546260

 Al 
  0.7616405  0.7518588  0.5023514

