32 
charge = 0 
 Al 
  0.9865254  0.9953641  0.0208393

 Al 
  0.0147357  0.2415215  0.2563574

 Al 
  0.2453876  0.9941055  0.2285407

 Al 
  0.2517672  0.2619301  0.0081135

 Al 
  0.4862507  0.9986350  0.9881268

 Al 
  0.5015074  0.2337124  0.2481152

 Al 
  0.7465460  0.9940746  0.2693580

 Al 
  0.7478652  0.2198629  0.0095800

 Al 
  0.0163321  0.5204594  0.0004987

 Al 
  0.0021373  0.7516076  0.2625996

 Al 
  0.2396490  0.5142926  0.2568511

 Al 
  0.2451846  0.7437194  0.0007363

 Al 
  0.0260705  0.0116677  0.5088028

 Al 
  0.0085058  0.2608052  0.7511546

 Al 
  0.2628595  0.9945461  0.7668308

 Al 
  0.2415697  0.2650933  0.5101913

 Al 
  0.9883892  0.4953876  0.5129338

 Al 
  0.0059824  0.7624746  0.7395240

 Al 
  0.2509616  0.5043166  0.7298896

 Al 
  0.2419088  0.7603695  0.4980929

 Al 
  0.4868459  0.5064601  0.9906824

 Al 
  0.4929496  0.7471029  0.2253898

 Al 
  0.7415734  0.4966400  0.2221982

 Al 
  0.7531484  0.7602619  0.0006745

 Al 
  0.5004010  0.9817286  0.5051210

 Al 
  0.5032696  0.2583337  0.7563660

 Al 
  0.7473108  0.9910339  0.7528464

 Al 
  0.7545480  0.2401280  0.4965905

 Al 
  0.4952168  0.5074637  0.4760247

 Al 
  0.4946983  0.7252314  0.7435214

 Al 
  0.7579526  0.5106195  0.7585256

 Al 
  0.7619499  0.7510507  0.5049230

