32 
charge = 0 
 Al 
  0.9849005  0.9961388  0.0235657

 Al 
  0.0124251  0.2314279  0.2528773

 Al 
  0.2433283  0.9922355  0.2278452

 Al 
  0.2457762  0.2610910  0.0076221

 Al 
  0.4845045  0.0010259  0.9892877

 Al 
  0.5031236  0.2281397  0.2453010

 Al 
  0.7428432  0.9921576  0.2688815

 Al 
  0.7497562  0.2201760  0.9997376

 Al 
  0.0127172  0.5155834  0.0003205

 Al 
  0.0092186  0.7536186  0.2588325

 Al 
  0.2471165  0.5150364  0.2547844

 Al 
  0.2468108  0.7448196  0.0007215

 Al 
  0.0222291  0.0136961  0.5161465

 Al 
  0.0032932  0.2574823  0.7613608

 Al 
  0.2577001  0.0027746  0.7632555

 Al 
  0.2419014  0.2597668  0.5113670

 Al 
  0.9890117  0.5015556  0.5069997

 Al 
  0.9988689  0.7702007  0.7413692

 Al 
  0.2568685  0.5074080  0.7232191

 Al 
  0.2392382  0.7671724  0.4971412

 Al 
  0.4904708  0.5056841  0.9976313

 Al 
  0.4918915  0.7484209  0.2340676

 Al 
  0.7465769  0.4965979  0.2191835

 Al 
  0.7461970  0.7591802  0.0051990

 Al 
  0.4987798  0.9764009  0.5079501

 Al 
  0.4984617  0.2537709  0.7481659

 Al 
  0.7517598  0.9961784  0.7580169

 Al 
  0.7594661  0.2358893  0.4999270

 Al 
  0.4970855  0.5049255  0.4797077

 Al 
  0.4976783  0.7279825  0.7504579

 Al 
  0.7695213  0.5108992  0.7501423

 Al 
  0.7604784  0.7525605  0.4989171

