32 
charge = 0 
 Al 
  0.9849215  0.9961475  0.0235508

 Al 
  0.0120972  0.2307906  0.2525778

 Al 
  0.2432936  0.9921415  0.2279961

 Al 
  0.2452601  0.2609896  0.0075108

 Al 
  0.4845602  0.0011670  0.9895030

 Al 
  0.5031805  0.2277672  0.2451215

 Al 
  0.7425969  0.9919484  0.2687206

 Al 
  0.7498849  0.2204581  0.9989258

 Al 
  0.0122506  0.5150698  0.0002611

 Al 
  0.0096381  0.7537374  0.2584476

 Al 
  0.2477390  0.5149312  0.2546087

 Al 
  0.2469247  0.7450200  0.0005829

 Al 
  0.0217180  0.0138384  0.5167071

 Al 
  0.0028142  0.2571036  0.7623397

 Al 
  0.2570875  0.0035159  0.7628125

 Al 
  0.2421242  0.2591840  0.5113187

 Al 
  0.9891429  0.5021150  0.5063091

 Al 
  0.9983318  0.7707564  0.7417244

 Al 
  0.2572719  0.5077187  0.7228603

 Al 
  0.2391602  0.7676340  0.4970979

 Al 
  0.4908309  0.5054601  0.9982328

 Al 
  0.4918853  0.7486016  0.2349574

 Al 
  0.7470855  0.4965608  0.2190857

 Al 
  0.7456029  0.7590194  0.0055567

 Al 
  0.4985855  0.9760779  0.5081927

 Al 
  0.4980991  0.2533823  0.7473962

 Al 
  0.7521138  0.9966276  0.7583387

 Al 
  0.7598077  0.2356368  0.5002772

 Al 
  0.4973689  0.5046805  0.4800827

 Al 
  0.4980125  0.7284454  0.7509900

 Al 
  0.7703666  0.5108361  0.7495186

 Al 
  0.7602433  0.7526348  0.4983961

