32 
charge = 0 
 Al 
  0.9849215  0.9960881  0.0234902

 Al 
  0.0130130  0.2327781  0.2534751

 Al 
  0.2434582  0.9924509  0.2276360

 Al 
  0.2467972  0.2612791  0.0078140

 Al 
  0.4844711  0.0007215  0.9889040

 Al 
  0.5029813  0.2289156  0.2456821

 Al 
  0.7433580  0.9925548  0.2691463

 Al 
  0.7494815  0.2197329  0.0013588

 Al 
  0.0135810  0.5165635  0.0004195

 Al 
  0.0083127  0.7533612  0.2595639

 Al 
  0.2458814  0.5151738  0.2551285

 Al 
  0.2465744  0.7444619  0.0009344

 Al 
  0.0231536  0.0134078  0.5150092

 Al 
  0.0042325  0.2581951  0.7594624

 Al 
  0.2588424  0.0013267  0.7640810

 Al 
  0.2415326  0.2608658  0.5114004

 Al 
  0.9887963  0.5004616  0.5082842

 Al 
  0.9999604  0.7690572  0.7407529

 Al 
  0.2560282  0.5068165  0.7240137

 Al 
  0.2394498  0.7662084  0.4972489

 Al 
  0.4897802  0.5060579  0.9964420

 Al 
  0.4919373  0.7480942  0.2323734

 Al 
  0.7456104  0.4966524  0.2194471

 Al 
  0.7473665  0.7594723  0.0044812

 Al 
  0.4991461  0.9770952  0.5074749

 Al 
  0.4991968  0.2545381  0.7496547

 Al 
  0.7510433  0.9952923  0.7573301

 Al 
  0.7587595  0.2364326  0.4992599

 Al 
  0.4965868  0.5053970  0.4789924

 Al 
  0.4970546  0.7271620  0.7493899

 Al 
  0.7677900  0.5109945  0.7514083

 Al 
  0.7608980  0.7523897  0.4999406

