32 
charge = 0 
 Al 
  0.9870848  0.9950176  0.0200077

 Al 
  0.0057299  0.2255643  0.2492698

 Al 
  0.2448691  0.9921699  0.2328127

 Al 
  0.2389263  0.2592446  0.0051445

 Al 
  0.4874301  0.0022041  0.9931575

 Al 
  0.5031545  0.2243367  0.2437713

 Al 
  0.7404720  0.9891800  0.2646169

 Al 
  0.7503242  0.2280778  0.9894560

 Al 
  0.0049602  0.5078301  0.9990694

 Al 
  0.0125142  0.7543426  0.2524553

 Al 
  0.2554973  0.5112618  0.2521930

 Al 
  0.2480187  0.7484865  0.9966202

 Al 
  0.0120180  0.0153099  0.5226610

 Al 
  0.9968529  0.2511967  0.7753960

 Al 
  0.2474679  0.0135525  0.7562596

 Al 
  0.2467922  0.2501238  0.5084773

 Al 
  0.9928617  0.5094686  0.4945436

 Al 
  0.9924657  0.7760247  0.7491659

 Al 
  0.2607618  0.5124882  0.7210051

 Al 
  0.2396379  0.7718108  0.4975125

 Al 
  0.4960918  0.5003812  0.0056816

 Al 
  0.4926922  0.7517078  0.2485347

 Al 
  0.7548748  0.4952341  0.2205695

 Al 
  0.7378781  0.7562002  0.0096406

 Al 
  0.4957638  0.9742451  0.5117977

 Al 
  0.4942391  0.2481969  0.7366826

 Al 
  0.7555727  0.0021781  0.7605638

 Al 
  0.7631132  0.2337867  0.5054329

 Al 
  0.5033179  0.5009504  0.4858188

 Al 
  0.5036731  0.7374152  0.7576358

 Al 
  0.7790072  0.5092780  0.7423494

 Al 
  0.7559378  0.7527363  0.4916997

