32 
charge = 0 
 Al 
  0.9863905  0.9954482  0.0212180

 Al 
  0.0072905  0.2260445  0.2497574

 Al 
  0.2442490  0.9919348  0.2314366

 Al 
  0.2400104  0.2596542  0.0057287

 Al 
  0.4865861  0.0021360  0.9923853

 Al 
  0.5032659  0.2247401  0.2438308

 Al 
  0.7406774  0.9896589  0.2657368

 Al 
  0.7505012  0.2259789  0.9909893

 Al 
  0.0064650  0.5092285  0.9993490

 Al 
  0.0123942  0.7543946  0.2537412

 Al 
  0.2541161  0.5123175  0.2526781

 Al 
  0.2478677  0.7477254  0.9977179

 Al 
  0.0143656  0.0151119  0.5218120

 Al 
  0.9978677  0.2524516  0.7729927

 Al 
  0.2494827  0.0116318  0.7575355

 Al 
  0.2456784  0.2520383  0.5094042

 Al 
  0.9917826  0.5080961  0.4972180

 Al 
  0.9933766  0.7754022  0.7473145

 Al 
  0.2604153  0.5114809  0.7208913

 Al 
  0.2393570  0.7713418  0.4972501

 Al 
  0.4950163  0.5016719  0.0043785

 Al 
  0.4924187  0.7510259  0.2456859

 Al 
  0.7532251  0.4956401  0.2197861

 Al 
  0.7393149  0.7568363  0.0089822

 Al 
  0.4963022  0.9741461  0.5110304

 Al 
  0.4948060  0.2492092  0.7387815

 Al 
  0.7551767  0.0012190  0.7604859

 Al 
  0.7627023  0.2338869  0.5043946

 Al 
  0.5017895  0.5017512  0.4846022

 Al 
  0.5023873  0.7352643  0.7564019

 Al 
  0.7777969  0.5096604  0.7435696

 Al 
  0.7569254  0.7528736  0.4929150

