32 
charge = 0 
 Al 
  0.9856257  0.9958764  0.0224964

 Al 
  0.0092471  0.2272350  0.2506250

 Al 
  0.2436340  0.9918197  0.2298488

 Al 
  0.2417430  0.2601765  0.0064675

 Al 
  0.4856047  0.0019170  0.9912962

 Al 
  0.5033365  0.2255755  0.2441228

 Al 
  0.7411774  0.9904349  0.2670548

 Al 
  0.7504864  0.2235100  0.9935313

 Al 
  0.0085986  0.5112915  0.9997166

 Al 
  0.0118162  0.7543080  0.2554973

 Al 
  0.2519838  0.5135389  0.2533637

 Al 
  0.2475979  0.7466883  0.9990100

 Al 
  0.0173345  0.0147295  0.5202676

 Al 
  0.9995025  0.2541805  0.7693270

 Al 
  0.2523056  0.0088003  0.7594278

 Al 
  0.2442280  0.2546891  0.5103831

 Al 
  0.9905685  0.5060418  0.5007376

 Al 
  0.9949124  0.7741040  0.7449953

 Al 
  0.2595961  0.5100874  0.7211660

 Al 
  0.2390946  0.7703393  0.4970484

 Al 
  0.4935016  0.5032746  0.0023365

 Al 
  0.4921155  0.7500941  0.2417294

 Al 
  0.7509504  0.4960831  0.2191364

 Al 
  0.7414695  0.7576840  0.0078932

 Al 
  0.4971103  0.9744542  0.5099859

 Al 
  0.4958084  0.2506658  0.7418296

 Al 
  0.7543141  0.9997005  0.7600366

 Al 
  0.7618781  0.2342792  0.5029058

 Al 
  0.4999332  0.5028365  0.4829315

 Al 
  0.5006943  0.7325108  0.7545716

 Al 
  0.7755953  0.5101554  0.7454854

 Al 
  0.7582347  0.7529206  0.4947750

