32 
charge = 0 
 Al 
  0.9868447  0.9951698  0.0204322

 Al 
  0.0062571  0.2256868  0.2494171

 Al 
  0.2446500  0.9920771  0.2323387

 Al 
  0.2392654  0.2593832  0.0053401

 Al 
  0.4871417  0.0021905  0.9929063

 Al 
  0.5031966  0.2244493  0.2437751

 Al 
  0.7405240  0.9893285  0.2650005

 Al 
  0.7504010  0.2273588  0.9899300

 Al 
  0.0054490  0.5082793  0.9991622

 Al 
  0.0125031  0.7543711  0.2528798

 Al 
  0.2550592  0.5116244  0.2523514

 Al 
  0.2479729  0.7482352  0.9969952

 Al 
  0.0128088  0.0152530  0.5224085

 Al 
  0.9971697  0.2516101  0.7746324

 Al 
  0.2481263  0.0129338  0.7566680

 Al 
  0.2464210  0.2507524  0.5088040

 Al 
  0.9924868  0.5090280  0.4954346

 Al 
  0.9927466  0.7758514  0.7485422

 Al 
  0.2606715  0.5121578  0.7209383

 Al 
  0.2395389  0.7716809  0.4974147

 Al 
  0.4957403  0.5008168  0.0052708

 Al 
  0.4925981  0.7514838  0.2476004

 Al 
  0.7543327  0.4953752  0.2202812

 Al 
  0.7383384  0.7564118  0.0094364

 Al 
  0.4959346  0.9741795  0.5115440

 Al 
  0.4944099  0.2485261  0.7373608

 Al 
  0.7554651  0.0018774  0.7605614

 Al 
  0.7629956  0.2338015  0.5050963

 Al 
  0.5027969  0.5012153  0.4854178

 Al 
  0.5032449  0.7366937  0.7572373

 Al 
  0.7786459  0.5094055  0.7427355

 Al 
  0.7562658  0.7527907  0.4920858

