32 
charge = 0 
 Al 
  0.9859821  0.9956846  0.0219110

 Al 
  0.0082904  0.2265593  0.2501621

 Al 
  0.2439075  0.9918494  0.2306024

 Al 
  0.2408396  0.2599191  0.0061061

 Al 
  0.4860700  0.0020457  0.9918457

 Al 
  0.5033142  0.2251151  0.2439483

 Al 
  0.7408953  0.9900302  0.2664237

 Al 
  0.7505284  0.2246906  0.9921947

 Al 
  0.0075194  0.5102371  0.9995347

 Al 
  0.0121665  0.7543748  0.2546161

 Al 
  0.2530877  0.5129585  0.2530159

 Al 
  0.2477439  0.7472068  0.9983924

 Al 
  0.0158792  0.0149361  0.5210967

 Al 
  0.9986486  0.2533117  0.7712168

 Al 
  0.2508824  0.0102495  0.7584612

 Al 
  0.2449433  0.2533563  0.5099314

 Al 
  0.9911415  0.5070974  0.4989914

 Al 
  0.9940993  0.7748181  0.7461277

 Al 
  0.2600564  0.5107878  0.7209655

 Al 
  0.2392060  0.7708950  0.4971276

 Al 
  0.4942688  0.5024949  0.0033983

 Al 
  0.4922553  0.7505594  0.2437218

 Al 
  0.7520940  0.4958764  0.2194037

 Al 
  0.7403619  0.7572620  0.0084662

 Al 
  0.4966957  0.9742377  0.5105106

 Al 
  0.4952725  0.2499233  0.7402752

 Al 
  0.7547906  0.0004913  0.7603114

 Al 
  0.7623286  0.2340466  0.5036607

 Al 
  0.5008316  0.5022920  0.4837706

 Al 
  0.5015346  0.7338634  0.7555121

 Al 
  0.7767796  0.5099129  0.7444854

 Al 
  0.7575850  0.7529169  0.4938147

