32 
charge = 0 
 Al 
  0.9854710  0.9959532  0.0227452

 Al 
  0.0097050  0.2276323  0.2508762

 Al 
  0.2435238  0.9918259  0.2295047

 Al 
  0.2422182  0.2603015  0.0066395

 Al 
  0.4853955  0.0018378  0.9910227

 Al 
  0.5033389  0.2258354  0.2442317

 Al 
  0.7413408  0.9906465  0.2673469

 Al 
  0.7504406  0.2229667  0.9942441

 Al 
  0.0091419  0.5118311  0.9998045

 Al 
  0.0115947  0.7542585  0.2559353

 Al 
  0.2514071  0.5138013  0.2535394

 Al 
  0.2475174  0.7464309  0.9992946

 Al 
  0.0180338  0.0146169  0.5198159

 Al 
  0.9999530  0.2546149  0.7683506

 Al 
  0.2530172  0.0080578  0.7599203

 Al 
  0.2438827  0.2553562  0.5105787

 Al 
  0.9903086  0.5054960  0.5015940

 Al 
  0.9953517  0.7737006  0.7444570

 Al 
  0.2593275  0.5097371  0.7213145

 Al 
  0.2390575  0.7700213  0.4970249

 Al 
  0.4931154  0.5036446  0.0017796

 Al 
  0.4920561  0.7498626  0.2407307

 Al 
  0.7503787  0.4961747  0.2190448

 Al 
  0.7420425  0.7578907  0.0075863

 Al 
  0.4973232  0.9746077  0.5097248

 Al 
  0.4960992  0.2510457  0.7426229

 Al 
  0.7540444  0.9992835  0.7598621

 Al 
  0.7616269  0.2344228  0.5025234

 Al 
  0.4995087  0.5031075  0.4825108

 Al 
  0.5002822  0.7318573  0.7540852

 Al 
  0.7749443  0.5102718  0.7460138

 Al 
  0.7585516  0.7529083  0.4952737

