32 
charge = 0 
 Al 
  0.9886738  0.9939545  0.0170957

 Al 
  0.0024479  0.2255569  0.2487117

 Al 
  0.2464061  0.9930016  0.2359326

 Al 
  0.2373855  0.2583709  0.0039639

 Al 
  0.4892654  0.0021348  0.9945164

 Al 
  0.5028216  0.2240793  0.2440869

 Al 
  0.7404943  0.9885711  0.2621108

 Al 
  0.7494542  0.2327410  0.9873954

 Al 
  0.0023167  0.5054997  0.9985310

 Al 
  0.0120600  0.7539800  0.2500260

 Al 
  0.2576791  0.5088968  0.2513019

 Al 
  0.2482241  0.7499196  0.9942132

 Al 
  0.0071457  0.0154275  0.5235273

 Al 
  0.9954185  0.2488528  0.7791335

 Al 
  0.2438481  0.0167714  0.7542003

 Al 
  0.2489666  0.2465868  0.5061371

 Al 
  0.9953938  0.5117309  0.4892580

 Al 
  0.9912331  0.7763700  0.7529999

 Al 
  0.2608151  0.5143334  0.7219717

 Al 
  0.2402963  0.7720868  0.4983095

 Al 
  0.4980546  0.4976969  0.0076506

 Al 
  0.4932899  0.7529392  0.2537671

 Al 
  0.7579427  0.4942577  0.2228603

 Al 
  0.7355230  0.7549614  0.0105477

 Al 
  0.4949186  0.9752945  0.5132555

 Al 
  0.4935882  0.2463913  0.7330887

 Al 
  0.7556866  0.0035951  0.7601319

 Al 
  0.7633966  0.2340750  0.5072274

 Al 
  0.5066581  0.4993812  0.4881169

 Al 
  0.5062076  0.7417776  0.7597470

 Al 
  0.7803401  0.5085330  0.7404015

 Al 
  0.7540481  0.7522289  0.4897827

