32 
charge = 0 
 Al 
  0.9889585  0.9937602  0.0165598

 Al 
  0.0018823  0.2256658  0.2486671

 Al 
  0.2466908  0.9931847  0.2364945

 Al 
  0.2372135  0.2582174  0.0037709

 Al 
  0.4895822  0.0021026  0.9947193

 Al 
  0.5027548  0.2241040  0.2441971

 Al 
  0.7405524  0.9885191  0.2616616

 Al 
  0.7492401  0.2335701  0.9871776

 Al 
  0.0019269  0.5051718  0.9984456

 Al 
  0.0119054  0.7538909  0.2496399

 Al 
  0.2579724  0.5084748  0.2511608

 Al 
  0.2482513  0.7501460  0.9937924

 Al 
  0.0063140  0.0154064  0.5235644

 Al 
  0.9952539  0.2484840  0.7796136

 Al 
  0.2433011  0.0172269  0.7539231

 Al 
  0.2493169  0.2460348  0.5056816

 Al 
  0.9958616  0.5120464  0.4883880

 Al 
  0.9910957  0.7763155  0.7536471

 Al 
  0.2607495  0.5146169  0.7222204

 Al 
  0.2404089  0.7720571  0.4984766

 Al 
  0.4983602  0.4972415  0.0078981

 Al 
  0.4933914  0.7531224  0.2545765

 Al 
  0.7584229  0.4940733  0.2233355

 Al 
  0.7351963  0.7547584  0.0106492

 Al 
  0.4948109  0.9755792  0.5134882

 Al 
  0.4935399  0.2461165  0.7325714

 Al 
  0.7556185  0.0037696  0.7599933

 Al 
  0.7633743  0.2341864  0.5074860

 Al 
  0.5072496  0.4991213  0.4884857

 Al 
  0.5066234  0.7425066  0.7600577

 Al 
  0.7804317  0.5084142  0.7401292

 Al 
  0.7537486  0.7521175  0.4895290

