32 
charge = 0 
 Al 
  0.9895426  0.9933605  0.0154473

 Al 
  0.0007314  0.2259690  0.2486189

 Al 
  0.2472786  0.9935894  0.2376541

 Al 
  0.2369388  0.2579018  0.0033884

 Al 
  0.4902257  0.0020234  0.9951054

 Al 
  0.5026162  0.2242117  0.2444631

 Al 
  0.7407133  0.9884597  0.2607359

 Al 
  0.7487513  0.2352693  0.9868435

 Al 
  0.0011881  0.5045641  0.9982761

 Al 
  0.0115341  0.7536941  0.2488788

 Al 
  0.2585058  0.5076036  0.2508836

 Al 
  0.2483045  0.7505891  0.9929372

 Al 
  0.0046359  0.0153235  0.5235521

 Al 
  0.9949829  0.2477637  0.7804515

 Al 
  0.2422529  0.0180697  0.7534231

 Al 
  0.2500050  0.2449619  0.5047089

 Al 
  0.9968356  0.5126293  0.4866566

 Al 
  0.9908730  0.7761150  0.7549453

 Al 
  0.2605614  0.5151614  0.7227910

 Al 
  0.2406329  0.7719383  0.4988416

 Al 
  0.4989580  0.4963244  0.0083300

 Al 
  0.4935944  0.7534664  0.2561445

 Al 
  0.7593535  0.4936884  0.2243664

 Al 
  0.7345961  0.7543500  0.0108175

 Al 
  0.4946228  0.9762400  0.5139449

 Al 
  0.4934917  0.2455881  0.7316061

 Al 
  0.7554081  0.0040691  0.7596641

 Al 
  0.7632741  0.2344649  0.5079711

 Al 
  0.5084649  0.4985991  0.4892146

 Al 
  0.5074464  0.7439632  0.7606443

 Al 
  0.7805121  0.5081778  0.7396218

 Al 
  0.7531669  0.7518737  0.4890748

