32 
charge = 0 
 Al 
  0.9883941  0.9941463  0.0176192

 Al 
  0.0030085  0.2254789  0.2487686

 Al 
  0.2461277  0.9928308  0.2353819

 Al 
  0.2375835  0.2585219  0.0041582

 Al 
  0.4889498  0.0021633  0.9943072

 Al 
  0.5028848  0.2240731  0.2439941

 Al 
  0.7404522  0.9886379  0.2625501

 Al 
  0.7496485  0.2319266  0.9876479

 Al 
  0.0027214  0.5058450  0.9986189

 Al 
  0.0121937  0.7540617  0.2504183

 Al 
  0.2573660  0.5093114  0.2514442

 Al 
  0.2481956  0.7496894  0.9946290

 Al 
  0.0079711  0.0154361  0.5234592

 Al 
  0.9956029  0.2492265  0.7786124

 Al 
  0.2444112  0.0162925  0.7544961

 Al 
  0.2486127  0.2471487  0.5065739

 Al 
  0.9949384  0.5113980  0.4901304

 Al 
  0.9913890  0.7763935  0.7523538

 Al 
  0.2608608  0.5140439  0.7217464

 Al 
  0.2401824  0.7720967  0.4981511

 Al 
  0.4977427  0.4981498  0.0073796

 Al 
  0.4931885  0.7527486  0.2529404

 Al 
  0.7574551  0.4944347  0.2224123

 Al 
  0.7358683  0.7551656  0.0104314

 Al 
  0.4950361  0.9750421  0.5130204

 Al 
  0.4936538  0.2466734  0.7336308

 Al 
  0.7557299  0.0034045  0.7602532

 Al 
  0.7633979  0.2339822  0.5069551

 Al 
  0.5060764  0.4996411  0.4877457

 Al 
  0.5057906  0.7410499  0.7594265

 Al 
  0.7802114  0.5086543  0.7406861

 Al 
  0.7543513  0.7523340  0.4900549

