32 
charge = 0 
 Al 
  0.9881194  0.9943320  0.0181291

 Al 
  0.0035642  0.2254294  0.2488392

 Al 
  0.2458579  0.9926724  0.2348436

 Al 
  0.2378038  0.2586704  0.0043550

 Al 
  0.4886379  0.0021843  0.9940919

 Al 
  0.5029454  0.2240854  0.2439174

 Al 
  0.7404250  0.9887184  0.2629820

 Al 
  0.7498218  0.2311259  0.9879362

 Al 
  0.0031397  0.5062064  0.9987067

 Al 
  0.0123051  0.7541347  0.2508143

 Al 
  0.2570343  0.5097186  0.2515890

 Al 
  0.2481659  0.7494567  0.9950398

 Al 
  0.0087916  0.0154336  0.5233602

 Al 
  0.9958096  0.2496077  0.7780506

 Al 
  0.2449903  0.0157913  0.7548104

 Al 
  0.2482550  0.2477204  0.5069910

 Al 
  0.9944966  0.5110477  0.4910066

 Al 
  0.9915635  0.7763848  0.7517103

 Al 
  0.2608856  0.5137456  0.7215472

 Al 
  0.2400710  0.7720855  0.4980038

 Al 
  0.4974259  0.4986016  0.0070875

 Al 
  0.4930882  0.7525519  0.2520964

 Al 
  0.7569576  0.4946067  0.2219902

 Al 
  0.7362309  0.7553698  0.0103027

 Al 
  0.4951636  0.9748193  0.5127815

 Al 
  0.4937355  0.2469618  0.7341939

 Al 
  0.7557485  0.0031954  0.7603559

 Al 
  0.7633805  0.2339067  0.5066729

 Al 
  0.5055059  0.4999010  0.4873694

 Al 
  0.5053710  0.7403223  0.7590936

 Al 
  0.7800480  0.5087768  0.7409868

 Al 
  0.7546594  0.7524306  0.4903458

