32 
charge = 0 
 Al 
  0.9898421  0.9931563  0.0148743

 Al 
  0.0001473  0.2261608  0.2486127

 Al 
  0.2475806  0.9938097  0.2382518

 Al 
  0.2368385  0.2577397  0.0032016

 Al 
  0.4905500  0.0019764  0.9952911

 Al 
  0.5025457  0.2242946  0.2446216

 Al 
  0.7408160  0.9884535  0.2602606

 Al 
  0.7484741  0.2361405  0.9867259

 Al 
  0.0008391  0.5042820  0.9981919

 Al 
  0.0113200  0.7535865  0.2485038

 Al 
  0.2587483  0.5071568  0.2507475

 Al 
  0.2483305  0.7508069  0.9925028

 Al 
  0.0037882  0.0152616  0.5235013

 Al 
  0.9948765  0.2474123  0.7808091

 Al 
  0.2417516  0.0184570  0.7532003

 Al 
  0.2503428  0.2444384  0.5041916

 Al 
  0.9973430  0.5128954  0.4857953

 Al 
  0.9907851  0.7759690  0.7555950

 Al 
  0.2604401  0.5154225  0.7231115

 Al 
  0.2407430  0.7718516  0.4990384

 Al 
  0.4992500  0.4958628  0.0085132

 Al 
  0.4936959  0.7536273  0.2569031

 Al 
  0.7598052  0.4934867  0.2249220

 Al 
  0.7343226  0.7541446  0.0108831

 Al 
  0.4945436  0.9766163  0.5141689

 Al 
  0.4934904  0.2453332  0.7311581

 Al 
  0.7552658  0.0041941  0.7594760

 Al 
  0.7631949  0.2346332  0.5081964

 Al 
  0.5090874  0.4983367  0.4895748

 Al 
  0.5078560  0.7446921  0.7609215

 Al 
  0.7805022  0.5080615  0.7393830

 Al 
  0.7528835  0.7517413  0.4888743

