32 
charge = 0 
 Al 
  0.9930387  0.9911366  0.0087075

 Al 
  0.9939273  0.2294527  0.2490768

 Al 
  0.2507487  0.9965930  0.2448777

 Al 
  0.2371838  0.2559032  0.0014937

 Al 
  0.4938827  0.0013910  0.9969593

 Al 
  0.5018502  0.2261782  0.2470459

 Al 
  0.7426303  0.9892604  0.2549973

 Al 
  0.7445423  0.2456017  0.9872110

 Al 
  0.9980261  0.5021930  0.9973541

 Al 
  0.0082360  0.7523291  0.2448814

 Al 
  0.2604351  0.5021880  0.2493985

 Al 
  0.2487228  0.7528810  0.9880674

 Al 
  0.9950027  0.0137246  0.5213504

 Al 
  0.9946327  0.2442206  0.7821271

 Al 
  0.2375192  0.0211339  0.7518477

 Al 
  0.2534243  0.2396886  0.4977489

 Al 
  0.0031372  0.5146651  0.4773068

 Al 
  0.9906403  0.7728627  0.7620402

 Al 
  0.2583808  0.5175870  0.7276162

 Al 
  0.2417034  0.7701191  0.5015272

 Al 
  0.5020853  0.4911663  0.0092681

 Al 
  0.4946513  0.7547720  0.2636318

 Al 
  0.7638001  0.4911292  0.2320306

 Al 
  0.7325095  0.7519157  0.0110564

 Al 
  0.4943654  0.9820504  0.5161663

 Al 
  0.4942948  0.2431674  0.7280555

 Al 
  0.7525048  0.0046891  0.7568858

 Al 
  0.7613509  0.2374128  0.5097879

 Al 
  0.5158891  0.4955807  0.4931575

 Al 
  0.5118063  0.7519504  0.7631231

 Al 
  0.7786706  0.5069341  0.7374301

 Al 
  0.7504109  0.7501250  0.4877716

