32 
charge = 0 
 Al 
  0.9910809  0.9923296  0.0124808

 Al 
  0.9977377  0.2271917  0.2486944

 Al 
  0.2488305  0.9948060  0.2407665

 Al 
  0.2366789  0.2570553  0.0024751

 Al 
  0.4918692  0.0017611  0.9959866

 Al 
  0.5022548  0.2248156  0.2454099

 Al 
  0.7413730  0.9885835  0.2582632

 Al 
  0.7471536  0.2397691  0.9865700

 Al 
  0.9995706  0.5032981  0.9978603

 Al 
  0.0102804  0.7531075  0.2470311

 Al 
  0.2595676  0.5052782  0.2502067

 Al 
  0.2484481  0.7516521  0.9907368

 Al 
  0.0003354  0.0148594  0.5230013

 Al 
  0.9946166  0.2460596  0.7818326

 Al 
  0.2398904  0.0197911  0.7524751

 Al 
  0.2516460  0.2424335  0.5018947

 Al 
  0.9995050  0.5138013  0.4823610

 Al 
  0.9905809  0.7750854  0.7582001

 Al 
  0.2597891  0.5163915  0.7246349

 Al 
  0.2411650  0.7713368  0.4999245

 Al 
  0.5003973  0.4939991  0.0090478

 Al 
  0.4940931  0.7541904  0.2597829

 Al 
  0.7615229  0.4926155  0.2274281

 Al 
  0.7333956  0.7533006  0.0110477

 Al 
  0.4943344  0.9784318  0.5150290

 Al 
  0.4936414  0.2443790  0.7296050

 Al 
  0.7544490  0.0045493  0.7585800

 Al 
  0.7626838  0.2354982  0.5089798

 Al 
  0.5116900  0.4972662  0.4910079

 Al 
  0.5094711  0.7476090  0.7619276

 Al 
  0.7801371  0.5076048  0.7385216

 Al 
  0.7518093  0.7511509  0.4882382

