32 
charge = 0 
 Al 
  0.9943666  0.9904596  0.0062200

 Al 
  0.9913247  0.2313574  0.2494320

 Al 
  0.2519615  0.9979023  0.2477563

 Al 
  0.2380080  0.2550431  0.0009603

 Al 
  0.4952032  0.0011546  0.9976152

 Al 
  0.5016472  0.2274640  0.2483887

 Al 
  0.7437119  0.9900215  0.2526818

 Al 
  0.7424546  0.2496362  0.9881454

 Al 
  0.9972291  0.5016658  0.9970026

 Al 
  0.0066247  0.7518576  0.2434867

 Al 
  0.2608336  0.4999715  0.2488577

 Al 
  0.2490124  0.7536978  0.9863819

 Al 
  0.9914423  0.0125712  0.5196537

 Al 
  0.9948084  0.2431761  0.7814811

 Al 
  0.2362395  0.0215633  0.7516856

 Al 
  0.2544354  0.2380897  0.4945795

 Al 
  0.0057695  0.5148866  0.4741288

 Al 
  0.9908594  0.7708071  0.7644349

 Al 
  0.2572162  0.5181649  0.7300072

 Al 
  0.2419744  0.7690622  0.5027449

 Al 
  0.5031979  0.4893112  0.0090453

 Al 
  0.4949829  0.7549738  0.2658309

 Al 
  0.7650574  0.4900537  0.2356010

 Al 
  0.7322694  0.7508873  0.0109673

 Al 
  0.4946389  0.9849686  0.5167529

 Al 
  0.4949644  0.2425536  0.7276236

 Al 
  0.7507871  0.0045592  0.7556161

 Al 
  0.7601233  0.2390958  0.5100614

 Al 
  0.5187837  0.4944112  0.4945943

 Al 
  0.5132481  0.7547374  0.7636751

 Al 
  0.7771422  0.5064910  0.7368088

 Al 
  0.7496819  0.7494047  0.4877791

