32 
charge = 0 
 Al 
  0.9937033  0.9907814  0.0074501

 Al 
  0.9926254  0.2303710  0.2492488

 Al 
  0.2513675  0.9972427  0.2463121

 Al 
  0.2375501  0.2554824  0.0012116

 Al 
  0.4945485  0.0012685  0.9972836

 Al 
  0.5017388  0.2267846  0.2476969

 Al 
  0.7431501  0.9896119  0.2538488

 Al 
  0.7435251  0.2476152  0.9876330

 Al 
  0.9976041  0.5019108  0.9971796

 Al 
  0.0074501  0.7520828  0.2441797

 Al 
  0.2606480  0.5010928  0.2491288

 Al 
  0.2488553  0.7532882  0.9872073

 Al 
  0.9932144  0.0131887  0.5205596

 Al 
  0.9947107  0.2436761  0.7818883

 Al 
  0.2368472  0.0213962  0.7517437

 Al 
  0.2539515  0.2388607  0.4961970

 Al 
  0.0044379  0.5148136  0.4756881

 Al 
  0.9907356  0.7718888  0.7632630

 Al 
  0.2578177  0.5179013  0.7287770

 Al 
  0.2418482  0.7696117  0.5021237

 Al 
  0.5026434  0.4902307  0.0091914

 Al 
  0.4948220  0.7548921  0.2647728

 Al 
  0.7644597  0.4905958  0.2337731

 Al 
  0.7323536  0.7514121  0.0110180

 Al 
  0.4944755  0.9834674  0.5164819

 Al 
  0.4946092  0.2428370  0.7277746

 Al 
  0.7516818  0.0046433  0.7562584

 Al 
  0.7607668  0.2382159  0.5099525

 Al 
  0.5173370  0.4949990  0.4938765

 Al 
  0.5125427  0.7533612  0.7634263

 Al 
  0.7779565  0.5067125  0.7371095

 Al 
  0.7500223  0.7497649  0.4877432

