32 
charge = 0 
 Al 
  0.9950225  0.9901799  0.0050344

 Al 
  0.9900413  0.2323957  0.2496188

 Al 
  0.2525184  0.9985632  0.2491943

 Al 
  0.2385525  0.2545864  0.0007450

 Al 
  0.4958418  0.0010507  0.9979605

 Al 
  0.5015804  0.2282090  0.2491127

 Al 
  0.7443097  0.9904831  0.2515049

 Al 
  0.7413445  0.2516435  0.9887382

 Al 
  0.9969036  0.5014566  0.9968232

 Al 
  0.0057720  0.7516620  0.2428048

 Al 
  0.2609945  0.4988355  0.2485867

 Al 
  0.2491931  0.7541099  0.9856059

 Al 
  0.9897022  0.0118732  0.5186389

 Al 
  0.9949161  0.2427306  0.7809094

 Al 
  0.2357000  0.0216314  0.7516645

 Al 
  0.2548673  0.2373855  0.4929150

 Al 
  0.0071209  0.5148817  0.4726499

 Al 
  0.9910042  0.7696253  0.7655401

 Al 
  0.2565851  0.5183729  0.7312942

 Al 
  0.2420784  0.7684818  0.5033835

 Al 
  0.5037449  0.4884189  0.0088337

 Al 
  0.4951327  0.7550171  0.2667962

 Al 
  0.7655834  0.4895092  0.2374994

 Al 
  0.7322583  0.7503428  0.0109104

 Al 
  0.4948542  0.9865341  0.5169707

 Al 
  0.4953505  0.2423246  0.7276088

 Al 
  0.7498329  0.0044379  0.7549701

 Al 
  0.7594290  0.2400450  0.5101146

 Al 
  0.5202143  0.4938221  0.4953059

 Al 
  0.5139139  0.7560653  0.7638632

 Al 
  0.7762400  0.5062707  0.7365291

 Al 
  0.7493961  0.7490533  0.4878756

