32 
charge = 0 
 Al 
  0.9940362  0.9906156  0.0068301

 Al 
  0.9919732  0.2308574  0.2493404

 Al 
  0.2516695  0.9975719  0.2470336

 Al 
  0.2377679  0.2552646  0.0010816

 Al 
  0.4948777  0.0012103  0.9974481

 Al 
  0.5016905  0.2271150  0.2480385

 Al 
  0.7434261  0.9898099  0.2532672

 Al 
  0.7429954  0.2486263  0.9878793

 Al 
  0.9974110  0.5017833  0.9970917

 Al 
  0.0070417  0.7519677  0.2438308

 Al 
  0.2607445  0.5005346  0.2489926

 Al 
  0.2489307  0.7534924  0.9867890

 Al 
  0.9923246  0.0128905  0.5201203

 Al 
  0.9947577  0.2434199  0.7817051

 Al 
  0.2365341  0.0214927  0.7517103

 Al 
  0.2541990  0.2384672  0.4953950

 Al 
  0.0051000  0.5148594  0.4748985

 Al 
  0.9907950  0.7713603  0.7638570

 Al 
  0.2575207  0.5180399  0.7293847

 Al 
  0.2419138  0.7693419  0.5024318

 Al 
  0.5029219  0.4897678  0.0091270

 Al 
  0.4949037  0.7549379  0.2653136

 Al 
  0.7647678  0.4903260  0.2346765

 Al 
  0.7323016  0.7511522  0.0109933

 Al 
  0.4945510  0.9842087  0.5166229

 Al 
  0.4947824  0.2426897  0.7276818

 Al 
  0.7512425  0.0046062  0.7559391

 Al 
  0.7604512  0.2386466  0.5100144

 Al 
  0.5180610  0.4947057  0.4942367

 Al 
  0.5129004  0.7540555  0.7635587

 Al 
  0.7775605  0.5066012  0.7369561

 Al 
  0.7498453  0.7495842  0.4877531

