32 
charge = 0 
 Al 
  0.9962861  0.9897715  0.0028637

 Al 
  0.9875835  0.2345738  0.2499752

 Al 
  0.2534788  0.9998305  0.2519776

 Al 
  0.2398582  0.2536347  0.0004356

 Al 
  0.4970497  0.0008836  0.9987006

 Al 
  0.5015408  0.2298785  0.2506175

 Al 
  0.7455757  0.9915326  0.2491597

 Al 
  0.7390822  0.2555257  0.9901131

 Al 
  0.9964012  0.5011249  0.9964618

 Al 
  0.0040258  0.7513910  0.2414905

 Al 
  0.2612668  0.4965522  0.2480385

 Al 
  0.2496324  0.7549428  0.9842557

 Al 
  0.9863881  0.0102520  0.5163173

 Al 
  0.9951252  0.2420338  0.7793055

 Al 
  0.2348361  0.0214717  0.7517054

 Al 
  0.2555579  0.2362210  0.4895352

 Al 
  0.0098361  0.5146317  0.4700176

 Al 
  0.9913284  0.7670140  0.7674880

 Al 
  0.2552572  0.5185956  0.7339785

 Al 
  0.2422244  0.7672516  0.5046854

 Al 
  0.5047993  0.4867630  0.0082310

 Al 
  0.4954025  0.7549948  0.2684224

 Al 
  0.7663866  0.4884498  0.2414286

 Al 
  0.7324464  0.7492092  0.0108014

 Al 
  0.4954408  0.9897666  0.5172207

 Al 
  0.4961834  0.2420524  0.7279999

 Al 
  0.7478058  0.0041013  0.7537090

 Al 
  0.7579365  0.2421180  0.5100540

 Al 
  0.5229419  0.4926637  0.4966920

 Al 
  0.5150970  0.7585280  0.7640389

 Al 
  0.7742253  0.5058314  0.7360391

 Al 
  0.7490038  0.7484097  0.4882394

