32 
charge = 0 
 Al 
  0.9991461  0.9900240  0.9987587

 Al 
  0.9822620  0.2404423  0.2504418

 Al 
  0.2547461  0.0022796  0.2581419

 Al 
  0.2443406  0.2508391  0.0004220

 Al 
  0.4997649  0.0007363  0.0012190

 Al 
  0.5022982  0.2353906  0.2547065

 Al 
  0.7490805  0.9948901  0.2431600

 Al 
  0.7336642  0.2642357  0.9945176

 Al 
  0.9959767  0.5004616  0.9955547

 Al 
  0.9994629  0.7516707  0.2383162

 Al 
  0.2620279  0.4907257  0.2463591

 Al 
  0.2514071  0.7572719  0.9824835

 Al 
  0.9789664  0.0045171  0.5084538

 Al 
  0.9951945  0.2416960  0.7722984

 Al 
  0.2339958  0.0191228  0.7519442

 Al 
  0.2560504  0.2351505  0.4811222

 Al 
  0.0168791  0.5123434  0.4658742

 Al 
  0.9920957  0.7587570  0.7704693

 Al 
  0.2515086  0.5176476  0.7415536

 Al 
  0.2423642  0.7638124  0.5081543

 Al 
  0.5070690  0.4837830  0.0056742

 Al 
  0.4959136  0.7542869  0.2706376

 Al 
  0.7664720  0.4862074  0.2522152

 Al 
  0.7342211  0.7459730  0.0107470

 Al 
  0.4980063  0.9983132  0.5162863

 Al 
  0.4984271  0.2428543  0.7319464

 Al 
  0.7422925  0.0028254  0.7509702

 Al 
  0.7537325  0.2483726  0.5088869

 Al 
  0.5285679  0.4899126  0.5000780

 Al 
  0.5169855  0.7635241  0.7630204

 Al 
  0.7678791  0.5045332  0.7353534

 Al 
  0.7492030  0.7474024  0.4902344

