32 
charge = 0 
 Al 
  0.9974457  0.9896094  0.0010383

 Al 
  0.9853646  0.2367816  0.2502599

 Al 
  0.2541867  0.0009455  0.2545221

 Al 
  0.2413804  0.2526434  0.0002970

 Al 
  0.4981449  0.0007772  0.9995285

 Al 
  0.5016534  0.2317435  0.2521373

 Al 
  0.7468764  0.9926984  0.2468826

 Al 
  0.7368955  0.2590936  0.9916576

 Al 
  0.9960943  0.5008700  0.9961091

 Al 
  0.0022944  0.7513118  0.2402567

 Al 
  0.2615130  0.4943245  0.2474704

 Al 
  0.2501757  0.7557844  0.9832521

 Al 
  0.9833783  0.0083622  0.5136751

 Al 
  0.9952638  0.2416341  0.7771534

 Al 
  0.2342706  0.0209297  0.7518019

 Al 
  0.2559824  0.2354376  0.4862445

 Al 
  0.0124932  0.5140624  0.4679372

 Al 
  0.9916539  0.7641515  0.7690028

 Al 
  0.2538859  0.5185325  0.7367309

 Al 
  0.2423011  0.7659881  0.5059824

 Al 
  0.5057646  0.4853609  0.0074316

 Al 
  0.4956277  0.7548401  0.2696079

 Al 
  0.7668024  0.4874833  0.2454148

 Al 
  0.7328944  0.7480447  0.0107284

 Al 
  0.4962217  0.9929966  0.5171774

 Al 
  0.4970398  0.2420647  0.7289552

 Al 
  0.7457267  0.0036706  0.7525568

 Al 
  0.7563796  0.2443468  0.5097817

 Al 
  0.5253725  0.4915660  0.4980038

 Al 
  0.5160400  0.7606715  0.7639275

 Al 
  0.7720138  0.5053834  0.7356616

 Al 
  0.7488627  0.7478961  0.4888124

