32 
charge = 0 
 Al 
  0.9977155  0.9896119  0.0006423

 Al 
  0.9848572  0.2373249  0.2503131

 Al 
  0.2543203  0.0011893  0.2551074

 Al 
  0.2417851  0.2523922  0.0002884

 Al 
  0.4983998  0.0007599  0.9997512

 Al 
  0.5017078  0.2322348  0.2525135

 Al 
  0.7472006  0.9930016  0.2463282

 Al 
  0.7363781  0.2599203  0.9920598

 Al 
  0.9960460  0.5008118  0.9960249

 Al 
  0.0018724  0.7513242  0.2399621

 Al 
  0.2615762  0.4937837  0.2473232

 Al 
  0.2503280  0.7559960  0.9830627

 Al 
  0.9826816  0.0078536  0.5129734

 Al 
  0.9952812  0.2415833  0.7765395

 Al 
  0.2341765  0.0207366  0.7518279

 Al 
  0.2560455  0.2353089  0.4854537

 Al 
  0.0131417  0.5138718  0.4675152

 Al 
  0.9917306  0.7634065  0.7693072

 Al 
  0.2535419  0.5184681  0.7374202

 Al 
  0.2423135  0.7656725  0.5063017

 Al 
  0.5059849  0.4850614  0.0072076

 Al 
  0.4956772  0.7547819  0.2698344

 Al 
  0.7668408  0.4872630  0.2464049

 Al 
  0.7330429  0.7477513  0.0107185

 Al 
  0.4964457  0.9937874  0.5171167

 Al 
  0.4972501  0.2421155  0.7292807

 Al 
  0.7452119  0.0035530  0.7522932

 Al 
  0.7559898  0.2449186  0.5096839

 Al 
  0.5259183  0.4913061  0.4983169

 Al 
  0.5162331  0.7611504  0.7638533

 Al 
  0.7714395  0.5052671  0.7355886

 Al 
  0.7488664  0.7477922  0.4889845

