32 
charge = 0 
 Al 
  0.9982278  0.9896713  0.9999220

 Al 
  0.9839043  0.2383954  0.2503948

 Al 
  0.2545332  0.0016274  0.2562138

 Al 
  0.2426155  0.2518823  0.0003007

 Al 
  0.4988850  0.0007363  0.0002141

 Al 
  0.5018551  0.2332496  0.2532573

 Al 
  0.7478405  0.9936191  0.2452428

 Al 
  0.7353930  0.2614846  0.9928729

 Al 
  0.9959816  0.5006992  0.9958591

 Al 
  0.0010433  0.7513885  0.2393904

 Al 
  0.2617111  0.4927268  0.2470187

 Al 
  0.2506559  0.7564192  0.9827632

 Al 
  0.9813536  0.0067942  0.5115242

 Al 
  0.9952911  0.2415413  0.7752302

 Al 
  0.2340429  0.0202849  0.7518774

 Al 
  0.2561185  0.2351369  0.4839265

 Al 
  0.0144164  0.5134350  0.4667974

 Al 
  0.9918705  0.7618893  0.7698208

 Al 
  0.2528563  0.5182800  0.7388001

 Al 
  0.2423308  0.7650450  0.5069303

 Al 
  0.5063957  0.4845305  0.0067299

 Al 
  0.4957675  0.7546458  0.2702069

 Al 
  0.7668333  0.4868583  0.2483689

 Al 
  0.7333820  0.7471623  0.0107111

 Al 
  0.4969259  0.9953393  0.5169299

 Al 
  0.4976622  0.2422788  0.7300332

 Al 
  0.7442033  0.0033117  0.7518019

 Al 
  0.7552200  0.2460695  0.5094575

 Al 
  0.5269269  0.4908074  0.4989258

 Al 
  0.5165635  0.7620390  0.7636503

 Al 
  0.7702737  0.5050319  0.7354685

 Al 
  0.7489196  0.7476177  0.4893607

