32 
charge = 0 
 Al 
  0.9993528  0.9901626  0.9985224

 Al 
  0.9819093  0.2409324  0.2504257

 Al 
  0.2547547  0.0023897  0.2585639

 Al 
  0.2447837  0.2505718  0.0004703

 Al 
  0.4999666  0.0007450  0.0014876

 Al 
  0.5024417  0.2359512  0.2550604

 Al 
  0.7493787  0.9952156  0.2426563

 Al 
  0.7332917  0.2648396  0.9949285

 Al 
  0.9960002  0.5003948  0.9954854

 Al 
  0.9990842  0.7517722  0.2380612

 Al 
  0.2621207  0.4902505  0.2461809

 Al 
  0.2516163  0.7574848  0.9824823

 Al 
  0.9784231  0.0039156  0.5076506

 Al 
  0.9951463  0.2417838  0.7715026

 Al 
  0.2340305  0.0187788  0.7519516

 Al 
  0.2559886  0.2352322  0.4804799

 Al 
  0.0174769  0.5120254  0.4657517

 Al 
  0.9921390  0.7579538  0.7705522

 Al 
  0.2511782  0.5174335  0.7422442

 Al 
  0.2423754  0.7635080  0.5084538

 Al 
  0.5072001  0.4836679  0.0053896

 Al 
  0.4959433  0.7541805  0.2706834

 Al 
  0.7663074  0.4860836  0.2531583

 Al 
  0.7344624  0.7456722  0.0107656

 Al 
  0.4983008  0.9990285  0.5160648

 Al 
  0.4986040  0.2430511  0.7325095

 Al 
  0.7418432  0.0027065  0.7507970

 Al 
  0.7533748  0.2489431  0.5087223

 Al 
  0.5288921  0.4897146  0.5003539

 Al 
  0.5170388  0.7638322  0.7628174

 Al 
  0.7672665  0.5044008  0.7353547

 Al 
  0.7493082  0.7473764  0.4904770

