32 
charge = 0 
 Al 
  0.9999233  0.9907084  0.9979258

 Al 
  0.9809873  0.2423482  0.2503082

 Al 
  0.2546780  0.0025890  0.2596827

 Al 
  0.2461339  0.2497512  0.0006448

 Al 
  0.5005334  0.0007982  0.0023402

 Al 
  0.5029602  0.2376937  0.2561024

 Al 
  0.7502475  0.9962106  0.2411811

 Al 
  0.7323338  0.2664460  0.9961561

 Al 
  0.9961215  0.5001658  0.9952973

 Al 
  0.9979877  0.7521397  0.2373298

 Al 
  0.2624387  0.4888904  0.2456029

 Al 
  0.2522994  0.7581295  0.9826481

 Al 
  0.9769145  0.0020321  0.5051470

 Al 
  0.9949371  0.2421625  0.7689595

 Al 
  0.2342384  0.0176229  0.7519405

 Al 
  0.2556928  0.2356703  0.4787040

 Al 
  0.0192391  0.5109623  0.4656502

 Al 
  0.9922293  0.7554997  0.7706104

 Al 
  0.2502067  0.5166477  0.7443295

 Al 
  0.2424249  0.7626058  0.5093337

 Al 
  0.5074947  0.4835169  0.0044812

 Al 
  0.4960175  0.7538142  0.2706784

 Al 
  0.7656304  0.4858200  0.2559453

 Al 
  0.7352619  0.7447503  0.0108509

 Al 
  0.4992451  0.0011113  0.5152517

 Al 
  0.4990904  0.2437713  0.7344092

 Al 
  0.7405772  0.0023699  0.7503601

 Al 
  0.7523489  0.2506262  0.5081791

 Al 
  0.5296421  0.4891948  0.5011559

 Al 
  0.5170635  0.7646045  0.7620922

 Al 
  0.7653978  0.5039837  0.7354376

 Al 
  0.7497030  0.7473615  0.4912603

