32 
charge = 0 
 Al 
  0.0005656  0.9917541  0.9973628

 Al 
  0.9800938  0.2441067  0.2499715

 Al 
  0.2543364  0.0025135  0.2608324

 Al 
  0.2479865  0.2485966  0.0009306

 Al 
  0.5012054  0.0009257  0.0035951

 Al 
  0.5038624  0.2401787  0.2574427

 Al 
  0.7513230  0.9975905  0.2392852

 Al 
  0.7314824  0.2680895  0.9977786

 Al 
  0.9964024  0.4997649  0.9951129

 Al 
  0.9966215  0.7527672  0.2364338

 Al 
  0.2629635  0.4872432  0.2447156

 Al 
  0.2533563  0.7589921  0.9832818

 Al 
  0.9751733  0.9993404  0.5015816

 Al 
  0.9945188  0.2429372  0.7651948

 Al 
  0.2347668  0.0157888  0.7518291

 Al 
  0.2550307  0.2367284  0.4767264

 Al 
  0.0215224  0.5092805  0.4661428

 Al 
  0.9922566  0.7521199  0.7702453

 Al 
  0.2489642  0.5152344  0.7471722

 Al 
  0.2425536  0.7614091  0.5104747

 Al 
  0.5076209  0.4838102  0.0031360

 Al 
  0.4960844  0.7532214  0.2703554

 Al 
  0.7642926  0.4857594  0.2595664

 Al 
  0.7364994  0.7434681  0.0110205

 Al 
  0.5006423  0.0037560  0.5137926

 Al 
  0.4996263  0.2450423  0.7374486

 Al 
  0.7391156  0.0019851  0.7499851

 Al 
  0.7511051  0.2527684  0.5073486

 Al 
  0.5300604  0.4887097  0.5021855

 Al 
  0.5167628  0.7652653  0.7608509

 Al 
  0.7628137  0.5033662  0.7357668

 Al 
  0.7503935  0.7474877  0.4924385

