32 
charge = 0 
 Al 
  0.0011856  0.9935981  0.9969432

 Al 
  0.9795530  0.2460955  0.2492414

 Al 
  0.2535394  0.0018378  0.2616974

 Al 
  0.2503700  0.2470299  0.0013217

 Al 
  0.5019232  0.0011806  0.0053611

 Al 
  0.5053339  0.2435399  0.2590057

 Al 
  0.7524887  0.9993985  0.2370180

 Al 
  0.7312089  0.2692985  0.9997636

 Al 
  0.9969271  0.4990471  0.9950386

 Al 
  0.9950807  0.7537053  0.2354599

 Al 
  0.2637790  0.4855156  0.2433840

 Al 
  0.2549168  0.7600527  0.9847767

 Al 
  0.9734394  0.9957341  0.4967761

 Al 
  0.9938023  0.2443184  0.7598683

 Al 
  0.2358274  0.0130612  0.7514851

 Al 
  0.2537511  0.2388322  0.4749827

 Al 
  0.0242612  0.5067484  0.4677788

 Al 
  0.9921303  0.7477662  0.7690696

 Al 
  0.2475410  0.5128236  0.7508552

 Al 
  0.2428778  0.7599042  0.5118410

 Al 
  0.5072806  0.4850725  0.0012215

 Al 
  0.4961339  0.7523043  0.2694669

 Al 
  0.7619289  0.4862408  0.2638916

 Al 
  0.7382939  0.7417739  0.0113064

 Al 
  0.5026051  0.0068648  0.5113348

 Al 
  0.5000792  0.2471165  0.7420598

 Al 
  0.7377395  0.0016509  0.7498688

 Al 
  0.7498193  0.2551557  0.5061705

 Al 
  0.5294812  0.4885327  0.5034392

 Al 
  0.5158049  0.7654596  0.7588535

 Al 
  0.7594302  0.5024801  0.7366046

 Al 
  0.7514690  0.7478578  0.4941179

