32 
charge = 0 
 Al 
  0.0013749  0.9944990  0.9968380

 Al 
  0.9795282  0.2468195  0.2488540

 Al 
  0.2531149  0.0013885  0.2618596

 Al 
  0.2513267  0.2463678  0.0014764

 Al 
  0.5021719  0.0013069  0.0061197

 Al 
  0.5060195  0.2449470  0.2595738

 Al 
  0.7528798  0.0001374  0.2361542

 Al 
  0.7313673  0.2695102  0.0005322

 Al 
  0.9971833  0.4986820  0.9950745

 Al 
  0.9945312  0.7540988  0.2351282

 Al 
  0.2641429  0.4849574  0.2427838

 Al 
  0.2556086  0.7604562  0.9855948

 Al 
  0.9728986  0.9942565  0.4947787

 Al 
  0.9934756  0.2449866  0.7575640

 Al 
  0.2363682  0.0118620  0.7512735

 Al 
  0.2530989  0.2399040  0.4745458

 Al 
  0.0253032  0.5056136  0.4687441

 Al 
  0.9920301  0.7460225  0.7683828

 Al 
  0.2470299  0.5116566  0.7523551

 Al 
  0.2430734  0.7592966  0.5123595

 Al 
  0.5069811  0.4858707  0.0003911

 Al 
  0.4961487  0.7518873  0.2689706

 Al 
  0.7607928  0.4866294  0.2655203

 Al 
  0.7390723  0.7410759  0.0114314

 Al 
  0.5034429  0.0080367  0.5101653

 Al 
  0.5001832  0.2480793  0.7441253

 Al 
  0.7373583  0.0015742  0.7499344

 Al 
  0.7494122  0.2559737  0.5056730

 Al 
  0.5288637  0.4886243  0.5039367

 Al 
  0.5152356  0.7653309  0.7579278

 Al 
  0.7580429  0.5020915  0.7370897

 Al 
  0.7519417  0.7480583  0.4948456

