32 
charge = 0 
 Al 
  0.0010779  0.9931823  0.9970063

 Al 
  0.9796074  0.2457180  0.2494159

 Al 
  0.2537300  0.0020259  0.2615762

 Al 
  0.2498899  0.2473541  0.0012438

 Al 
  0.5017908  0.0011212  0.0049911

 Al 
  0.5050109  0.2428481  0.2587063

 Al 
  0.7522746  0.9990310  0.2374610

 Al 
  0.7311878  0.2691352  0.9993713

 Al 
  0.9968071  0.4992129  0.9950349

 Al 
  0.9953715  0.7535097  0.2356393

 Al 
  0.2636033  0.4858262  0.2436711

 Al 
  0.2545839  0.7598448  0.9844141

 Al 
  0.9737439  0.9964705  0.4977625

 Al 
  0.9939595  0.2440077  0.7609858

 Al 
  0.2355812  0.0136417  0.7515754

 Al 
  0.2540468  0.2383434  0.4752599

 Al 
  0.0237265  0.5072917  0.4673618

 Al 
  0.9921699  0.7486424  0.7693679

 Al 
  0.2478108  0.5133644  0.7501077

 Al 
  0.2427961  0.7602074  0.5115749

 Al 
  0.5073957  0.4847359  0.0016237

 Al 
  0.4961264  0.7525024  0.2696859

 Al 
  0.7624585  0.4860898  0.2630513

 Al 
  0.7379164  0.7421204  0.0112445

 Al 
  0.5021954  0.0062621  0.5118818

 Al 
  0.5000099  0.2466611  0.7410697

 Al 
  0.7379684  0.0017016  0.7498602

 Al 
  0.7500483  0.2547139  0.5064155

 Al 
  0.5297040  0.4885241  0.5031892

 Al 
  0.5160499  0.7654782  0.7592916

 Al 
  0.7601183  0.5026669  0.7363955

 Al 
  0.7512400  0.7477662  0.4937639

