32 
charge = 0 
 Al 
  0.0016497  0.9965237  0.9966920

 Al 
  0.9798191  0.2481263  0.2479370

 Al 
  0.2521224  0.0002265  0.2618744

 Al 
  0.2531904  0.2450089  0.0017561

 Al 
  0.5025939  0.0015915  0.0076766

 Al 
  0.5074984  0.2477860  0.2605601

 Al 
  0.7534949  0.0015965  0.2345379

 Al 
  0.7321469  0.2694755  0.0019813

 Al 
  0.9977501  0.4978182  0.9952886

 Al 
  0.9935882  0.7548463  0.2345911

 Al 
  0.2648928  0.4841283  0.2414955

 Al 
  0.2570628  0.7611777  0.9875699

 Al 
  0.9721239  0.9913680  0.4907962

 Al 
  0.9928060  0.2464692  0.7527759

 Al 
  0.2376095  0.0093708  0.7507128

 Al 
  0.2515940  0.2423556  0.4741721

 Al 
  0.0272289  0.5032053  0.4711425

 Al 
  0.9917591  0.7426452  0.7666873

 Al 
  0.2461462  0.5090255  0.7553178

 Al 
  0.2435870  0.7580739  0.5133100

 Al 
  0.5061197  0.4879400  0.9986671

 Al 
  0.4961759  0.7509888  0.2677788

 Al 
  0.7582954  0.4877506  0.2684842

 Al 
  0.7406713  0.7396886  0.0116677

 Al 
  0.5051582  0.0102074  0.5075838

 Al 
  0.5002525  0.2501522  0.7484926

 Al 
  0.7369227  0.0015309  0.7502525

 Al 
  0.7488181  0.2572818  0.5046805

 Al 
  0.5269380  0.4891181  0.5049218

 Al 
  0.5138100  0.7647319  0.7559193

 Al 
  0.7552819  0.5012735  0.7383174

 Al 
  0.7528959  0.7485149  0.4963591

