32 
charge = 0 
 Al 
  0.0016955  0.9970645  0.9966611

 Al 
  0.9799614  0.2484196  0.2476845

 Al 
  0.2518514  0.9998923  0.2618175

 Al 
  0.2536347  0.2446698  0.0018192

 Al 
  0.5026830  0.0016658  0.0080640

 Al 
  0.5078783  0.2484877  0.2607656

 Al 
  0.7536087  0.0019492  0.2341654

 Al 
  0.7324316  0.2693778  0.0023192

 Al 
  0.9978999  0.4975781  0.9953728

 Al 
  0.9933902  0.7550146  0.2344859

 Al 
  0.2650760  0.4839897  0.2411626

 Al 
  0.2574316  0.7613336  0.9881244

 Al 
  0.9719989  0.9906824  0.4898272

 Al 
  0.9926439  0.2468603  0.7515643

 Al 
  0.2379449  0.0087471  0.7505458

 Al 
  0.2511856  0.2430127  0.4741857

 Al 
  0.0276645  0.5025890  0.4718232

 Al 
  0.9916799  0.7418432  0.7662084

 Al 
  0.2459594  0.5083201  0.7560344

 Al 
  0.2437404  0.7577694  0.5135241

 Al 
  0.5058574  0.4885439  0.9982352

 Al 
  0.4961834  0.7507549  0.2674472

 Al 
  0.7576432  0.4880984  0.2691451

 Al 
  0.7410697  0.7393520  0.0117197

 Al 
  0.5055851  0.0107049  0.5069044

 Al 
  0.5002413  0.2506868  0.7496052

 Al 
  0.7368843  0.0015420  0.7503688

 Al 
  0.7487191  0.2575306  0.5044428

 Al 
  0.5263180  0.4893062  0.5051643

 Al 
  0.5134028  0.7645154  0.7553982

 Al 
  0.7546087  0.5010655  0.7386726

 Al 
  0.7531273  0.7486337  0.4967427

