32 
charge = 0 
 Al 
  0.0017883  0.9992835  0.9965348

 Al 
  0.9807807  0.2494592  0.2466276

 Al 
  0.2507252  0.9984555  0.2613868

 Al 
  0.2552757  0.2433493  0.0020308

 Al 
  0.5029714  0.0019553  0.0095503

 Al 
  0.5093758  0.2511744  0.2613967

 Al 
  0.7538946  0.0032659  0.2328362

 Al 
  0.7338622  0.2687020  0.0035283

 Al 
  0.9984951  0.4965509  0.9958331

 Al 
  0.9927788  0.7555554  0.2341926

 Al 
  0.2657505  0.4837248  0.2398408

 Al 
  0.2588758  0.7618249  0.9904955

 Al 
  0.9718021  0.9881912  0.4861900

 Al 
  0.9920635  0.2484431  0.7468083

 Al 
  0.2393359  0.0063363  0.7497810

 Al 
  0.2494914  0.2456970  0.4746448

 Al 
  0.0291743  0.5001559  0.4747612

 Al 
  0.9913321  0.7389015  0.7641503

 Al 
  0.2453678  0.5054032  0.7587236

 Al 
  0.2444384  0.7565665  0.5142555

 Al 
  0.5046817  0.4912096  0.9965621

 Al 
  0.4962242  0.7498131  0.2660425

 Al 
  0.7550394  0.4897233  0.2713876

 Al 
  0.7425969  0.7380897  0.0118645

 Al 
  0.5072249  0.0124722  0.5041570

 Al 
  0.5000965  0.2527907  0.7539676

 Al 
  0.7370031  0.0016682  0.7509542

 Al 
  0.7485298  0.2581840  0.5035667

 Al 
  0.5233664  0.4902888  0.5061086

 Al 
  0.5116455  0.7634350  0.7533142

 Al 
  0.7520494  0.5002438  0.7402530

 Al 
  0.7539627  0.7490854  0.4982550

