32 
charge = 0 
 Al 
  0.0017474  0.0014702  0.9963517

 Al 
  0.9819303  0.2502884  0.2455621

 Al 
  0.2496015  0.9969766  0.2607185

 Al 
  0.2566370  0.2421440  0.0021905

 Al 
  0.5031583  0.0022078  0.0108571

 Al 
  0.5107334  0.2535827  0.2616962

 Al 
  0.7539095  0.0043834  0.2317979

 Al 
  0.7356368  0.2676922  0.0044800

 Al 
  0.9990619  0.4954643  0.9964692

 Al 
  0.9924694  0.7558264  0.2340948

 Al 
  0.2662702  0.4839216  0.2385983

 Al 
  0.2601876  0.7620823  0.9929830

 Al 
  0.9720806  0.9862321  0.4830899

 Al 
  0.9916353  0.2499579  0.7423865

 Al 
  0.2407331  0.0041805  0.7488998

 Al 
  0.2478244  0.2482699  0.4756757

 Al 
  0.0302361  0.4979147  0.4778563

 Al 
  0.9909745  0.7364784  0.7619957

 Al 
  0.2450225  0.5024863  0.7610316

 Al 
  0.2452379  0.7554007  0.5147530

 Al 
  0.5034132  0.4941104  0.9950733

 Al 
  0.4962923  0.7489010  0.2646008

 Al 
  0.7526014  0.4916279  0.2729308

 Al 
  0.7439533  0.7370229  0.0118794

 Al 
  0.5086815  0.0138458  0.5015098

 Al 
  0.4998243  0.2547151  0.7579662

 Al 
  0.7374969  0.0018935  0.7516893

 Al 
  0.7486362  0.2583115  0.5028600

 Al 
  0.5198282  0.4915697  0.5069947

 Al 
  0.5097941  0.7621120  0.7513390

 Al 
  0.7497946  0.4994802  0.7419954

 Al 
  0.7545938  0.7494480  0.4996745

