32 
charge = 0 
 Al 
  0.0017313  0.9976140  0.9966314

 Al 
  0.9801297  0.2487006  0.2474259

 Al 
  0.2515754  0.9995458  0.2617383

 Al 
  0.2540666  0.2443332  0.0018774

 Al 
  0.5027660  0.0017400  0.0084476

 Al 
  0.5082595  0.2491795  0.2609537

 Al 
  0.7537053  0.0022932  0.2338077

 Al 
  0.7327471  0.2692503  0.0026434

 Al 
  0.9980484  0.4973306  0.9954693

 Al 
  0.9932107  0.7551705  0.2343931

 Al 
  0.2652554  0.4838795  0.2408297

 Al 
  0.2577991  0.7614772  0.9886961

 Al 
  0.9719049  0.9900178  0.4888780

 Al 
  0.9924880  0.2472563  0.7503577

 Al 
  0.2382877  0.0081283  0.7503676

 Al 
  0.2507685  0.2436798  0.4742401

 Al 
  0.0280803  0.5019727  0.4725298

 Al 
  0.9915957  0.7410648  0.7657121

 Al 
  0.2457886  0.5076023  0.7567361

 Al 
  0.2439025  0.7574662  0.5137270

 Al 
  0.5055802  0.4891763  0.9978058

 Al 
  0.4961920  0.7505198  0.2671056

 Al 
  0.7569873  0.4884721  0.2697676

 Al 
  0.7414633  0.7390216  0.0117655

 Al 
  0.5060071  0.0111814  0.5062188

 Al 
  0.5002190  0.2512202  0.7507141

 Al 
  0.7368744  0.0015630  0.7504975

 Al 
  0.7486424  0.2577459  0.5042102

 Al 
  0.5256485  0.4895178  0.5054044

 Al 
  0.5129808  0.7642753  0.7548748

 Al 
  0.7539453  0.5008576  0.7390463

 Al 
  0.7533501  0.7487513  0.4971251

