32 
charge = 0 
 Al 
  0.0017784  0.9987253  0.9965695

 Al 
  0.9805406  0.2492191  0.2468962

 Al 
  0.2510099  0.9988243  0.2615217

 Al 
  0.2548896  0.2436711  0.0019838

 Al 
  0.5029095  0.0018848  0.0091914

 Al 
  0.5090095  0.2505247  0.2612692

 Al 
  0.7538488  0.0029528  0.2331419

 Al 
  0.7334662  0.2689087  0.0032486

 Al 
  0.9983479  0.4968158  0.9957007

 Al 
  0.9929038  0.7554428  0.2342471

 Al 
  0.2655933  0.4837471  0.2401676

 Al 
  0.2585231  0.7617234  0.9898842

 Al 
  0.9718059  0.9887691  0.4870551

 Al 
  0.9921959  0.2480496  0.7479753

 Al 
  0.2389845  0.0069204  0.7499851

 Al 
  0.2499183  0.2450262  0.4744716

 Al 
  0.0288364  0.5007524  0.4740025

 Al 
  0.9914212  0.7395921  0.7646800

 Al 
  0.2454916  0.5061408  0.7580838

 Al 
  0.2442528  0.7568635  0.5140934

 Al 
  0.5049899  0.4905128  0.9969667

 Al 
  0.4962118  0.7500483  0.2664014

 Al 
  0.7556829  0.4892864  0.2708913

 Al 
  0.7422281  0.7383904  0.0118385

 Al 
  0.5068276  0.0120650  0.5048413

 Al 
  0.5001460  0.2522759  0.7529008

 Al 
  0.7369351  0.0016262  0.7507908

 Al 
  0.7485471  0.2580714  0.5037721

 Al 
  0.5241684  0.4900104  0.5058772

 Al 
  0.5120984  0.7637332  0.7538303

 Al 
  0.7526645  0.5004455  0.7398384

 Al 
  0.7537696  0.7489778  0.4978825

