32 
charge = 0 
 Al 
  0.0015977  0.0035184  0.9960633

 Al 
  0.9833226  0.2509517  0.2445547

 Al 
  0.2485446  0.9955745  0.2599203

 Al 
  0.2576902  0.2410896  0.0023217

 Al 
  0.5032622  0.0023972  0.0119338

 Al 
  0.5118682  0.2556631  0.2616727

 Al 
  0.7536805  0.0052683  0.2310603

 Al 
  0.7376070  0.2665078  0.0051693

 Al 
  0.9995768  0.4943691  0.9972464

 Al 
  0.9924484  0.7557868  0.2341679

 Al 
  0.2665846  0.4845305  0.2374907

 Al 
  0.2612977  0.7621021  0.9954520

 Al 
  0.9728033  0.9848696  0.4806136

 Al 
  0.9913903  0.2513205  0.7384412

 Al 
  0.2420746  0.0023526  0.7479395

 Al 
  0.2463133  0.2505470  0.4771435

 Al 
  0.0308104  0.4959866  0.4809205

 Al 
  0.9906477  0.7345985  0.7598757

 Al 
  0.2448975  0.4997030  0.7629164

 Al 
  0.2461029  0.7542721  0.5149980

 Al 
  0.5021694  0.4970781  0.9938468

 Al 
  0.4964024  0.7480620  0.2632085

 Al 
  0.7504529  0.4937058  0.2737946

 Al 
  0.7451005  0.7361913  0.0117420

 Al 
  0.5099030  0.0148322  0.4990755

 Al 
  0.4994716  0.2563487  0.7614301

 Al 
  0.7382741  0.0021769  0.7525246

 Al 
  0.7489741  0.2580021  0.5023328

 Al 
  0.5159163  0.4930523  0.5078177

 Al 
  0.5079625  0.7606678  0.7495557

 Al 
  0.7478850  0.4987983  0.7438097

 Al 
  0.7549676  0.7496758  0.5009579

