32 
charge = 0 
 Al 
  0.0016435  0.0030221  0.9961475

 Al 
  0.9829551  0.2507982  0.2447998

 Al 
  0.2488008  0.9959136  0.2601270

 Al 
  0.2574551  0.2413383  0.0022895

 Al 
  0.5032424  0.0023576  0.0116875

 Al 
  0.5116083  0.2551730  0.2617073

 Al 
  0.7537585  0.0050691  0.2312175

 Al 
  0.7371021  0.2668135  0.0050208

 Al 
  0.9994542  0.4946426  0.9970398

 Al 
  0.9924286  0.7558264  0.2341344

 Al 
  0.2665264  0.4843436  0.2377543

 Al 
  0.2610415  0.7621194  0.9948406

 Al 
  0.9725830  0.9851542  0.4811742

 Al 
  0.9914336  0.2509962  0.7393805

 Al 
  0.2417455  0.0027783  0.7481857

 Al 
  0.2466710  0.2500124  0.4767413

 Al 
  0.0307126  0.4964358  0.4801631

 Al 
  0.9907257  0.7350193  0.7603980

 Al 
  0.2449111  0.5003824  0.7624833

 Al 
  0.2458814  0.7545518  0.5149609

 Al 
  0.5024739  0.4963356  0.9941265

 Al 
  0.4963702  0.7482637  0.2635488

 Al 
  0.7509591  0.4931736  0.2736387

 Al 
  0.7448332  0.7363769  0.0117915

 Al 
  0.5096208  0.0146206  0.4996621

 Al 
  0.4995644  0.2559712  0.7606170

 Al 
  0.7380575  0.0021026  0.7523081

 Al 
  0.7488713  0.2581135  0.5024491

 Al 
  0.5169212  0.4926674  0.5076172

 Al 
  0.5084154  0.7610353  0.7499814

 Al 
  0.7483305  0.4989604  0.7433531

 Al 
  0.7548995  0.7496324  0.5006510

