32 
charge = 0 
 Al 
  0.0011546  0.0067237  0.9952292

 Al 
  0.9862321  0.2518836  0.2430041

 Al 
  0.2469234  0.9934372  0.2583894

 Al 
  0.2588585  0.2395859  0.0025915

 Al 
  0.5032882  0.0025481  0.0132630

 Al 
  0.5132605  0.2586555  0.2609450

 Al 
  0.7527932  0.0062868  0.2304180

 Al 
  0.7413148  0.2642926  0.0058252

 Al 
  0.0003651  0.4924682  0.9988825

 Al 
  0.9930177  0.7549515  0.2346196

 Al 
  0.2665871  0.4864239  0.2359091

 Al 
  0.2627098  0.7616232  0.9996126

 Al 
  0.9750408  0.9838152  0.4776657

 Al 
  0.9913928  0.2532684  0.7326457

 Al 
  0.2442886  0.9998874  0.7461202

 Al 
  0.2442503  0.2536211  0.4804874

 Al 
  0.0306222  0.4934756  0.4860329

 Al 
  0.9902195  0.7324105  0.7563512

 Al 
  0.2450745  0.4952156  0.7653507

 Al 
  0.2477365  0.7522982  0.5148149

 Al 
  0.5002091  0.5022623  0.9923816

 Al 
  0.4967427  0.7468096  0.2609710

 Al 
  0.7474222  0.4976276  0.2739505

 Al 
  0.7466660  0.7352841  0.0111108

 Al 
  0.5114784  0.0157641  0.4953356

 Al 
  0.4987649  0.2584315  0.7661960

 Al 
  0.7400970  0.0027301  0.7541656

 Al 
  0.7499220  0.2567361  0.5017549

 Al 
  0.5084389  0.4959396  0.5091295

 Al 
  0.5049032  0.7580479  0.7469222

 Al 
  0.7452490  0.4977860  0.7470422

 Al 
  0.7549738  0.7497104  0.5028835

