32 
charge = 0 
 Al 
  0.0012289  0.0062893  0.9953777

 Al 
  0.9857792  0.2517598  0.2432083

 Al 
  0.2471375  0.9937169  0.2586147

 Al 
  0.2587384  0.2397777  0.0025432

 Al 
  0.5032944  0.0025407  0.0131132

 Al 
  0.5131070  0.2582657  0.2610985

 Al 
  0.7529541  0.0061804  0.2304638

 Al 
  0.7407665  0.2646144  0.0057695

 Al 
  0.0002599  0.4927405  0.9986275

 Al 
  0.9928927  0.7551309  0.2345329

 Al 
  0.2666316  0.4860935  0.2361096

 Al 
  0.2625489  0.7617296  0.9990285

 Al 
  0.9746461  0.9838721  0.4779912

 Al 
  0.9913606  0.2530234  0.7333981

 Al 
  0.2439780  0.0001906  0.7463925

 Al 
  0.2444941  0.2532548  0.4799564

 Al 
  0.0307435  0.4937664  0.4853200

 Al 
  0.9902678  0.7326506  0.7568437

 Al 
  0.2450238  0.4958331  0.7650587

 Al 
  0.2474927  0.7525865  0.5148904

 Al 
  0.5004703  0.5015185  0.9925375

 Al 
  0.4966796  0.7469729  0.2612754

 Al 
  0.7478046  0.4970447  0.2740199

 Al 
  0.7464705  0.7353745  0.0112321

 Al 
  0.5112940  0.0156849  0.4958368

 Al 
  0.4988701  0.2581939  0.7656057

 Al 
  0.7398074  0.0026484  0.7539181

 Al 
  0.7497661  0.2569588  0.5018167

 Al 
  0.5095565  0.4955076  0.5089501

 Al 
  0.5053314  0.7584253  0.7472650

 Al 
  0.7455807  0.4979197  0.7465757

 Al 
  0.7550233  0.7497339  0.5026298

