32 
charge = 0 
 Al 
  0.0014306  0.0049453  0.9957626

 Al 
  0.9844971  0.2513749  0.2438567

 Al 
  0.2478145  0.9946067  0.2592780

 Al 
  0.2582880  0.2403965  0.0024219

 Al 
  0.5032944  0.0024912  0.0125872

 Al 
  0.5125575  0.2570306  0.2614623

 Al 
  0.7533699  0.0057844  0.2306903

 Al 
  0.7391602  0.2655698  0.0055294

 Al 
  0.9999295  0.4935535  0.9979060

 Al 
  0.9926043  0.7555480  0.2343151

 Al 
  0.2666737  0.4852210  0.2367593

 Al 
  0.2619846  0.7619734  0.9972588

 Al 
  0.9736139  0.9842248  0.4791520

 Al 
  0.9913259  0.2522227  0.7357990

 Al 
  0.2430387  0.0011930  0.7471821

 Al 
  0.2453294  0.2520098  0.4784677

 Al 
  0.0309168  0.4947738  0.4831506

 Al 
  0.9904386  0.7335095  0.7583387

 Al 
  0.2449198  0.4977266  0.7640785

 Al 
  0.2467836  0.7534342  0.5150166

 Al 
  0.5012920  0.4992995  0.9931130

 Al 
  0.4965212  0.7474927  0.2622185

 Al 
  0.7490483  0.4953431  0.2740520

 Al 
  0.7458307  0.7357210  0.0115328

 Al 
  0.5106616  0.0153445  0.4974024

 Al 
  0.4991770  0.2573610  0.7636615

 Al 
  0.7389931  0.0024083  0.7532016

 Al 
  0.7493367  0.2575504  0.5020407

 Al 
  0.5128063  0.4942515  0.5083969

 Al 
  0.5066309  0.7595527  0.7483565

 Al 
  0.7466598  0.4983404  0.7451871

 Al 
  0.7550715  0.7497475  0.5018291

