32 
charge = 0 
 Al 
  0.0013675  0.0054020  0.9956438

 Al 
  0.9849129  0.2515061  0.2436352

 Al 
  0.2475830  0.9943010  0.2590590

 Al 
  0.2584538  0.2401824  0.0024590

 Al 
  0.5032981  0.0025123  0.0127754

 Al 
  0.5127556  0.2574551  0.2613583

 Al 
  0.7532424  0.0059292  0.2306000

 Al 
  0.7396886  0.2652530  0.0056222

 Al 
  0.0000421  0.4932825  0.9981399

 Al 
  0.9926860  0.7554292  0.2343807

 Al 
  0.2666737  0.4854933  0.2365341

 Al 
  0.2621863  0.7619041  0.9978516

 Al 
  0.9739332  0.9840763  0.4787337

 Al 
  0.9913272  0.2525011  0.7349735

 Al 
  0.2433531  0.0008428  0.7469222

 Al 
  0.2450337  0.2524491  0.4789466

 Al 
  0.0308896  0.4944161  0.4838795

 Al 
  0.9903767  0.7331989  0.7578362

 Al 
  0.2449470  0.4970868  0.7644238

 Al 
  0.2470162  0.7531545  0.5149906

 Al 
  0.5010111  0.5000384  0.9929038

 Al 
  0.4965695  0.7473133  0.2618992

 Al 
  0.7486176  0.4959024  0.2740718

 Al 
  0.7460534  0.7355923  0.0114425

 Al 
  0.5108856  0.0154757  0.4968690

 Al 
  0.4990755  0.2576580  0.7643396

 Al 
  0.7392555  0.0024875  0.7534355

 Al 
  0.7494728  0.2573672  0.5019603

 Al 
  0.5117395  0.4946636  0.5085837

 Al 
  0.5061940  0.7591778  0.7479815

 Al 
  0.7462848  0.4981956  0.7456487

 Al 
  0.7550715  0.7497525  0.5021026

