32 
charge = 0 
 Al 
  0.0007450  0.0088152  0.9943233

 Al 
  0.9887308  0.2524925  0.2420586

 Al 
  0.2459284  0.9921539  0.2572311

 Al 
  0.2592471  0.2387159  0.0029107

 Al 
  0.5032016  0.0025110  0.0138236

 Al 
  0.5137976  0.2604896  0.2599203

 Al 
  0.7518365  0.0066408  0.2304020

 Al 
  0.7441835  0.2626603  0.0059378

 Al 
  0.0008824  0.4910920  0.0002698

 Al 
  0.9938518  0.7537436  0.2351616

 Al 
  0.2661292  0.4883644  0.2350304

 Al 
  0.2633186  0.7609054  0.0025222

 Al 
  0.9774120  0.9839501  0.4764455

 Al 
  0.9917170  0.2543389  0.7291854

 Al 
  0.2458616  0.9985607  0.7446946

 Al 
  0.2433122  0.2551099  0.4834179

 Al 
  0.0295047  0.4923593  0.4895587

 Al 
  0.9900574  0.7314873  0.7539057

 Al 
  0.2454223  0.4921873  0.7666118

 Al 
  0.2490260  0.7507834  0.5141726

 Al 
  0.4989901  0.5060430  0.9918618

 Al 
  0.4971462  0.7460745  0.2594983

 Al 
  0.7457044  0.5006893  0.2732055

 Al 
  0.7475571  0.7350230  0.0103423

 Al 
  0.5122160  0.0159126  0.4929162

 Al 
  0.4982365  0.2593424  0.7687689

 Al 
  0.7416823  0.0031533  0.7554911

 Al 
  0.7507661  0.2554700  0.5014950

 Al 
  0.5025358  0.4981870  0.5100032

 Al 
  0.5027672  0.7561346  0.7453418

 Al 
  0.7437515  0.4971586  0.7494233

 Al 
  0.7544787  0.7494542  0.5040691

