32 
charge = 0 
 Al 
  0.0003861  0.0104339  0.9933803

 Al 
  0.9910697  0.2529949  0.2414113

 Al 
  0.2452181  0.9912566  0.2562485

 Al 
  0.2593139  0.2381058  0.0032993

 Al 
  0.5030617  0.0023947  0.0140525

 Al 
  0.5139486  0.2618880  0.2587793

 Al 
  0.7508997  0.0067064  0.2306482

 Al 
  0.7466697  0.2613064  0.0058363

 Al 
  0.0012933  0.4899634  0.0015272

 Al 
  0.9947787  0.7523749  0.2357297

 Al 
  0.2654423  0.4902876  0.2344723

 Al 
  0.2635501  0.7600973  0.0048760

 Al 
  0.9798376  0.9845342  0.4759195

 Al 
  0.9921724  0.2550047  0.7267413

 Al 
  0.2471845  0.9976833  0.7434558

 Al 
  0.2429348  0.2558896  0.4861133

 Al 
  0.0279256  0.4918964  0.4923803

 Al 
  0.9900426  0.7310381  0.7519207

 Al 
  0.2457997  0.4897802  0.7674311

 Al 
  0.2501522  0.7494369  0.5132939

 Al 
  0.4981127  0.5092099  0.9917752

 Al 
  0.4976028  0.7455819  0.2583585

 Al 
  0.7445225  0.5033563  0.2721561

 Al 
  0.7482117  0.7350379  0.0095131

 Al 
  0.5125872  0.0157505  0.4910252

 Al 
  0.4978145  0.2597310  0.7704297

 Al 
  0.7431192  0.0035097  0.7566680

 Al 
  0.7514999  0.2543154  0.5013093

 Al 
  0.4973516  0.5001002  0.5106839

 Al 
  0.5010210  0.7545579  0.7442132

 Al 
  0.7426971  0.4966945  0.7514083

 Al 
  0.7537795  0.7490805  0.5049465

