32 
charge = 0 
 Al 
  0.0008316  0.0084043  0.9945275

 Al 
  0.9881961  0.2523699  0.2422368

 Al 
  0.2461178  0.9923952  0.2574687

 Al 
  0.2591963  0.2388793  0.0028340

 Al 
  0.5032263  0.0025283  0.0137357

 Al 
  0.5137196  0.2601332  0.2601592

 Al 
  0.7520482  0.0065937  0.2303772

 Al 
  0.7435907  0.2629907  0.0059366

 Al 
  0.0007797  0.4913705  0.9999765

 Al 
  0.9936563  0.7540283  0.2350391

 Al 
  0.2662541  0.4879362  0.2351901

 Al 
  0.2632246  0.7610737  0.0019393

 Al 
  0.9768823  0.9838696  0.4766373

 Al 
  0.9916304  0.2541458  0.7298401

 Al 
  0.2455423  0.9988033  0.7449903

 Al 
  0.2434607  0.2548574  0.4827942

 Al 
  0.0298005  0.4925363  0.4888557

 Al 
  0.9900785  0.7316370  0.7543958

 Al 
  0.2453406  0.4927887  0.7663829

 Al 
  0.2487575  0.7510990  0.5143384

 Al 
  0.4992228  0.5052745  0.9919299

 Al 
  0.4970521  0.7462118  0.2597866

 Al 
  0.7460249  0.5000557  0.2734060

 Al 
  0.7473887  0.7350502  0.0105180

 Al 
  0.5120922  0.0159138  0.4933914

 Al 
  0.4983417  0.2591976  0.7683011

 Al 
  0.7413470  0.0030667  0.7552139

 Al 
  0.7505891  0.2557411  0.5015420

 Al 
  0.5037634  0.4977254  0.5098312

 Al 
  0.5031966  0.7565220  0.7456413

 Al 
  0.7440325  0.4972798  0.7489394

 Al 
  0.7546112  0.7495235  0.5038414

