32 
charge = 0 
 Al 
  0.9998527  0.0127778  0.9915660

 Al 
  0.9952750  0.2537981  0.2407034

 Al 
  0.2442973  0.9901428  0.2546433

 Al 
  0.2590107  0.2373001  0.0041731

 Al 
  0.5027028  0.0020890  0.0140179

 Al 
  0.5136652  0.2639733  0.2564762

 Al 
  0.7492773  0.0064304  0.2314935

 Al 
  0.7507685  0.2591691  0.0053822

 Al 
  0.0019182  0.4882679  0.0036533

 Al 
  0.9966202  0.7495966  0.2368212

 Al 
  0.2637629  0.4938171  0.2339364

 Al 
  0.2633595  0.7584847  0.0084575

 Al 
  0.9844463  0.9861616  0.4758552

 Al 
  0.9932045  0.2556173  0.7236498

 Al 
  0.2493379  0.9966116  0.7414237

 Al 
  0.2431055  0.2563660  0.4907752

 Al 
  0.0242216  0.4920239  0.4966413

 Al 
  0.9902839  0.7307967  0.7488379

 Al 
  0.2464804  0.4861579  0.7684125

 Al 
  0.2519640  0.7471202  0.5112581

 Al 
  0.4969791  0.5142555  0.9922491

 Al 
  0.4985607  0.7450374  0.2566866

 Al 
  0.7430251  0.5077459  0.2698517

 Al 
  0.7492179  0.7354735  0.0078635

 Al 
  0.5127605  0.0150450  0.4881739

 Al 
  0.4972316  0.2597124  0.7723046

 Al 
  0.7455572  0.0040679  0.7586283

 Al 
  0.7526212  0.2524405  0.5009455

 Al 
  0.4887048  0.5031199  0.5116913

 Al 
  0.4982687  0.7520964  0.7427207

 Al 
  0.7412876  0.4960547  0.7545233

 Al 
  0.7522289  0.7482488  0.5061853

