32 
charge = 0 
 Al 
  0.9996956  0.0135105  0.9908618

 Al 
  0.9968603  0.2540741  0.2405698

 Al 
  0.2440411  0.9898483  0.2540703

 Al 
  0.2588053  0.2370600  0.0045518

 Al 
  0.5025345  0.0019566  0.0138978

 Al 
  0.5134263  0.2646688  0.2555480

 Al 
  0.7487105  0.0062386  0.2319118

 Al 
  0.7522128  0.2584389  0.0051582

 Al 
  0.0021199  0.4877333  0.0044057

 Al 
  0.9973442  0.7484827  0.2372482

 Al 
  0.2630142  0.4951500  0.2338647

 Al 
  0.2631244  0.7578536  0.0096357

 Al 
  0.9862284  0.9868880  0.4760321

 Al 
  0.9936402  0.2556915  0.7228120

 Al 
  0.2500965  0.9963121  0.7407109

 Al 
  0.2433840  0.2563351  0.4924719

 Al 
  0.0226165  0.4923123  0.4980409

 Al 
  0.9904547  0.7308314  0.7477947

 Al 
  0.2467229  0.4849698  0.7686736

 Al 
  0.2525704  0.7462737  0.5103782

 Al 
  0.4966635  0.5159844  0.9925796

 Al 
  0.4989555  0.7449260  0.2561482

 Al 
  0.7426093  0.5092805  0.2689001

 Al 
  0.7495854  0.7357420  0.0072014

 Al 
  0.5127061  0.0146874  0.4872259

 Al 
  0.4970682  0.2595354  0.7727575

 Al 
  0.7464309  0.0042510  0.7593114

 Al 
  0.7529763  0.2518019  0.5007784

 Al 
  0.4856319  0.5041297  0.5120180

 Al 
  0.4973182  0.7512636  0.7422826

 Al 
  0.7408631  0.4958591  0.7555765

 Al 
  0.7515890  0.7479110  0.5065814

