32 
charge = 0 
 Al 
  0.0000248  0.0120143  0.9922232

 Al 
  0.9937775  0.2535246  0.2408940

 Al 
  0.2445820  0.9904794  0.2551978

 Al 
  0.2591654  0.2375551  0.0038389

 Al 
  0.5028452  0.0022066  0.0140822

 Al 
  0.5138310  0.2632766  0.2573251

 Al 
  0.7498379  0.0065739  0.2311445

 Al 
  0.7493565  0.2598943  0.0055715

 Al 
  0.0017115  0.4888248  0.0029169

 Al 
  0.9959482  0.7506200  0.2364239

 Al 
  0.2644164  0.4925573  0.2340676

 Al 
  0.2635043  0.7590738  0.0072633

 Al 
  0.9827806  0.9855230  0.4757784

 Al 
  0.9928135  0.2554725  0.7245928

 Al 
  0.2485978  0.9969395  0.7421217

 Al 
  0.2429409  0.2563017  0.4891429

 Al 
  0.0256435  0.4918618  0.4952230

 Al 
  0.9901614  0.7308203  0.7498787

 Al 
  0.2462428  0.4873620  0.7681179

 Al 
  0.2513514  0.7479333  0.5120378

 Al 
  0.4973281  0.5125415  0.9920053

 Al 
  0.4982031  0.7451884  0.2572373

 Al 
  0.7434855  0.5062373  0.2707156

 Al 
  0.7488701  0.7352681  0.0084699

 Al 
  0.5127568  0.0153421  0.4891268

 Al 
  0.4974135  0.2598027  0.7717638

 Al 
  0.7447094  0.0038798  0.7579538

 Al 
  0.7522524  0.2530766  0.5010866

 Al 
  0.4916960  0.5021026  0.5113571

 Al 
  0.4992042  0.7529268  0.7431897

 Al 
  0.7417368  0.4962601  0.7534714

 Al 
  0.7528105  0.7485595  0.5057807

