32 
charge = 0 
 Al 
  0.9995594  0.0141986  0.9901193

 Al 
  0.9985186  0.2543463  0.2405029

 Al 
  0.2438171  0.9896020  0.2534800

 Al 
  0.2585553  0.2368336  0.0049738

 Al 
  0.5023402  0.0018118  0.0137209

 Al 
  0.5131132  0.2653594  0.2545493

 Al 
  0.7481511  0.0060009  0.2323994

 Al 
  0.7536718  0.2577088  0.0049057

 Al 
  0.0023105  0.4872321  0.0051643

 Al 
  0.9981102  0.7472885  0.2377061

 Al 
  0.2621739  0.4965398  0.2338597

 Al 
  0.2627927  0.7571878  0.0107767

 Al 
  0.9881083  0.9876912  0.4763093

 Al 
  0.9941142  0.2556891  0.7220954

 Al 
  0.2508675  0.9960398  0.7399906

 Al 
  0.2437800  0.2562113  0.4942144

 Al 
  0.0208381  0.4927306  0.4994035

 Al 
  0.9906774  0.7309267  0.7467588

 Al 
  0.2469655  0.4838176  0.7688963

 Al 
  0.2531558  0.7454025  0.5094030

 Al 
  0.4963863  0.5177021  0.9929966

 Al 
  0.4993812  0.7448555  0.2556297

 Al 
  0.7422430  0.5108188  0.2678692

 Al 
  0.7499765  0.7360762  0.0064861

 Al 
  0.5125934  0.0142740  0.4862940

 Al 
  0.4969284  0.2592718  0.7731152

 Al 
  0.7473207  0.0044280  0.7599933

 Al 
  0.7533080  0.2511695  0.5005804

 Al 
  0.4825157  0.5051136  0.5123360

 Al 
  0.4963616  0.7504418  0.7418828

 Al 
  0.7404633  0.4956747  0.7566197

 Al 
  0.7509009  0.7475533  0.5069662

