32 
charge = 0 
 Al 
  0.9994357  0.0164732  0.9862631

 Al 
  0.0071073  0.2554478  0.2413779

 Al 
  0.2433704  0.9892901  0.2504727

 Al 
  0.2569068  0.2360168  0.0075256

 Al 
  0.5010012  0.0009888  0.0120279

 Al 
  0.5106047  0.2684719  0.2489666

 Al 
  0.7459433  0.0043649  0.2356690

 Al 
  0.7604401  0.2543896  0.0034912

 Al 
  0.0029578  0.4857086  0.0084946

 Al 
  0.0021138  0.7407764  0.2402913

 Al 
  0.2570058  0.5035419  0.2350131

 Al 
  0.2597235  0.7538105  0.0151713

 Al 
  0.9979927  0.9923048  0.4790716

 Al 
  0.9967563  0.2543859  0.7207502

 Al 
  0.2545641  0.9950287  0.7366554

 Al 
  0.2472873  0.2543760  0.5026905

 Al 
  0.0102965  0.4964680  0.5049589

 Al 
  0.9925845  0.7323165  0.7422727

 Al 
  0.2479692  0.4792560  0.7694396

 Al 
  0.2551569  0.7413395  0.5035865

 Al 
  0.4956698  0.5251547  0.9961289

 Al 
  0.5016732  0.7452762  0.2535741

 Al 
  0.7413247  0.5176501  0.2620848

 Al 
  0.7523675  0.7386961  0.0023563

 Al 
  0.5111641  0.0116195  0.4823610

 Al 
  0.4967477  0.2567942  0.7734097

 Al 
  0.7515210  0.0050109  0.7628310

 Al 
  0.7543661  0.2484431  0.4990904

 Al 
  0.4680053  0.5088845  0.5135092

 Al 
  0.4918234  0.7469717  0.7406911

 Al 
  0.7390030  0.4949780  0.7610985

 Al 
  0.7471140  0.7457663  0.5086753

