32 
charge = 0 
 Al 
  0.9993515  0.0160425  0.9873942

 Al 
  0.0045716  0.2551854  0.2408903

 Al 
  0.2433729  0.9892122  0.2513613

 Al 
  0.2574340  0.2361975  0.0067138

 Al 
  0.5014591  0.0012475  0.0126652

 Al 
  0.5114945  0.2676229  0.2506856

 Al 
  0.7464544  0.0049057  0.2345763

 Al 
  0.7585837  0.2552968  0.0039082

 Al 
  0.0028291  0.4859537  0.0076345

 Al 
  0.0009368  0.7427405  0.2394770

 Al 
  0.2586691  0.5015259  0.2344500

 Al 
  0.2608757  0.7547795  0.0141639

 Al 
  0.9950547  0.9908854  0.4780308

 Al 
  0.9959532  0.2550010  0.7207341

 Al 
  0.2535172  0.9952812  0.7375712

 Al 
  0.2460076  0.2551074  0.5002908

 Al 
  0.0136318  0.4951116  0.5035803

 Al 
  0.9918779  0.7317410  0.7434372

 Al 
  0.2477303  0.4803475  0.7693666

 Al 
  0.2547844  0.7424236  0.5054366

 Al 
  0.4957663  0.5232179  0.9950436

 Al 
  0.5009938  0.7450064  0.2540728

 Al 
  0.7414299  0.5158519  0.2638657

 Al 
  0.7515717  0.7377531  0.0036619

 Al 
  0.5117346  0.0124833  0.4833659

 Al 
  0.4966969  0.2577137  0.7735793

 Al 
  0.7503564  0.0049069  0.7621368

 Al 
  0.7541780  0.2491560  0.4996201

 Al 
  0.4719754  0.5080343  0.5132580

 Al 
  0.4931055  0.7478528  0.7408841

 Al 
  0.7393359  0.4951426  0.7599389

 Al 
  0.7482649  0.7462712  0.5082050

