32 
charge = 0 
 Al 
  0.9995619  0.0166205  0.9855490

 Al 
  0.0087360  0.2555802  0.2418123

 Al 
  0.2434347  0.9894226  0.2498985

 Al 
  0.2565591  0.2359314  0.0080677

 Al 
  0.5006757  0.0008131  0.0115514

 Al 
  0.5099661  0.2689892  0.2478281

 Al 
  0.7456933  0.0039949  0.2364301

 Al 
  0.7615625  0.2538352  0.0032362

 Al 
  0.0030122  0.4856591  0.0089748

 Al 
  0.0028612  0.7395104  0.2408458

 Al 
  0.2558772  0.5047993  0.2354908

 Al 
  0.2588560  0.7532090  0.0156638

 Al 
  0.9998886  0.9932293  0.4798451

 Al 
  0.9972811  0.2538785  0.7209594

 Al 
  0.2552163  0.9948777  0.7361046

 Al 
  0.2482204  0.2538241  0.5041780

 Al 
  0.0080516  0.4974444  0.5057213

 Al 
  0.9931154  0.7327744  0.7416081

 Al 
  0.2480867  0.4786867  0.7694594

 Al 
  0.2552646  0.7407294  0.5023328

 Al 
  0.4956549  0.5262648  0.9968974

 Al 
  0.5021039  0.7455274  0.2533031

 Al 
  0.7413321  0.5186884  0.2609079

 Al 
  0.7529343  0.7393929  0.0014702

 Al 
  0.5107235  0.0110292  0.4817930

 Al 
  0.4968331  0.2561148  0.7731870

 Al 
  0.7522313  0.0050381  0.7631949

 Al 
  0.7544255  0.2480286  0.4987018

 Al 
  0.4656279  0.5092830  0.5136132

 Al 
  0.4910202  0.7464767  0.7406465

 Al 
  0.7388347  0.4948889  0.7617618

 Al 
  0.7463591  0.7454594  0.5089686

