32 
charge = 0 
 Al 
  0.9994109  0.0151144  0.9889585

 Al 
  0.0010965  0.2547362  0.2405425

 Al 
  0.2435560  0.9893396  0.2525741

 Al 
  0.2581097  0.2365291  0.0056779

 Al 
  0.5019999  0.0015791  0.0133496

 Al 
  0.5125118  0.2663680  0.2529454

 Al 
  0.7473578  0.0055727  0.2332533

 Al 
  0.7558438  0.2566370  0.0044899

 Al 
  0.0025667  0.4865786  0.0062782

 Al 
  0.9993119  0.7453839  0.2384375

 Al 
  0.2607618  0.4986845  0.2339909

 Al 
  0.2621120  0.7561532  0.0123744

 Al 
  0.9910537  0.9890092  0.4769120

 Al 
  0.9948802  0.2555270  0.7212799

 Al 
  0.2520234  0.9956809  0.7389213

 Al 
  0.2445844  0.2558574  0.4968578

 Al 
  0.0179001  0.4935882  0.5013329

 Al 
  0.9911118  0.7311841  0.7452564

 Al 
  0.2473182  0.4821977  0.7691550

 Al 
  0.2539565  0.7440857  0.5077892

 Al 
  0.4960522  0.5201970  0.9937726

 Al 
  0.5000606  0.7448418  0.2549032

 Al 
  0.7417999  0.5130786  0.2662071

 Al 
  0.7506151  0.7366999  0.0053277

 Al 
  0.5123113  0.0135612  0.4849574

 Al 
  0.4967749  0.2587174  0.7734654

 Al 
  0.7486548  0.0046656  0.7609784

 Al 
  0.7537461  0.2502587  0.5002190

 Al 
  0.4778612  0.5064935  0.5127766

 Al 
  0.4949347  0.7492599  0.7413705

 Al 
  0.7399238  0.4954235  0.7581246

 Al 
  0.7497983  0.7469989  0.5075207

