32 
charge = 0 
 Al 
  0.0009480  0.0158854  0.9828672

 Al 
  0.0153742  0.2556953  0.2448480

 Al 
  0.2443221  0.9907665  0.2474283

 Al 
  0.2551260  0.2359116  0.0103386

 Al 
  0.4990508  0.9999493  0.0089414

 Al 
  0.5067262  0.2708542  0.2428642

 Al 
  0.7455745  0.0022932  0.2400661

 Al 
  0.7654745  0.2517932  0.0024640

 Al 
  0.0029627  0.4865947  0.0100874

 Al 
  0.0057002  0.7344958  0.2435350

 Al 
  0.2507722  0.5094476  0.2386441

 Al 
  0.2540010  0.7510222  0.0159646

 Al 
  0.0077199  0.9970447  0.4839983

 Al 
  0.9995050  0.2507661  0.7237736

 Al 
  0.2577113  0.9942651  0.7343089

 Al 
  0.2530283  0.2508106  0.5096839

 Al 
  0.9978615  0.5022474  0.5077113

 Al 
  0.9961301  0.7355737  0.7397913

 Al 
  0.2481053  0.4777164  0.7694124

 Al 
  0.2541458  0.7393731  0.4965744

 Al 
  0.4959792  0.5294354  0.0006967

 Al 
  0.5037226  0.7473887  0.2526335

 Al 
  0.7420722  0.5216821  0.2557609

 Al 
  0.7559180  0.7432503  0.9973603

 Al 
  0.5081580  0.0083065  0.4802361

 Al 
  0.4977303  0.2525098  0.7712192

 Al 
  0.7547250  0.0046928  0.7637035

 Al 
  0.7540419  0.2467390  0.4966140

 Al 
  0.4578672  0.5092582  0.5133855

 Al 
  0.4878397  0.7451426  0.7412863

 Al 
  0.7385773  0.4946797  0.7636714

 Al 
  0.7431303  0.7444037  0.5101294

