32 
charge = 0 
 Al 
  0.9998663  0.0166316  0.9845515

 Al 
  0.0110725  0.2557089  0.2426241

 Al 
  0.2436228  0.9897381  0.2490595

 Al 
  0.2560554  0.2358571  0.0088659

 Al 
  0.5001609  0.0005408  0.0107656

 Al 
  0.5089488  0.2696909  0.2461450

 Al 
  0.7454643  0.0034330  0.2376058

 Al 
  0.7630687  0.2530803  0.0029033

 Al 
  0.0030456  0.4857606  0.0095416

 Al 
  0.0039095  0.7377023  0.2417009

 Al 
  0.2541743  0.5065380  0.2363571

 Al 
  0.2574142  0.7523848  0.0161155

 Al 
  0.0026236  0.9945696  0.4811111

 Al 
  0.9980447  0.2529838  0.7215633

 Al 
  0.2561272  0.9946673  0.7353770

 Al 
  0.2497203  0.2529107  0.5062262

 Al 
  0.0046730  0.4989852  0.5066346

 Al 
  0.9940015  0.7335689  0.7407901

 Al 
  0.2481907  0.4780741  0.7694594

 Al 
  0.2551928  0.7400092  0.5004344

 Al 
  0.4956982  0.5276496  0.9981065

 Al 
  0.5027053  0.7460138  0.2529850

 Al 
  0.7414546  0.5199903  0.2591666

 Al 
  0.7538463  0.7405425  0.0001238

 Al 
  0.5099748  0.0101332  0.4810925

 Al 
  0.4970398  0.2550084  0.7726981

 Al 
  0.7531880  0.0050097  0.7635748

 Al 
  0.7544119  0.2474976  0.4980682

 Al 
  0.4625019  0.5096084  0.5136664

 Al 
  0.4898904  0.7458764  0.7407096

 Al 
  0.7386590  0.4947849  0.7625910

 Al 
  0.7452539  0.7450473  0.5093807

