32 
charge = 0 
 Al 
  0.0007203  0.0160821  0.9831172

 Al 
  0.0146886  0.2557237  0.2444198

 Al 
  0.2441760  0.9905586  0.2476994

 Al 
  0.2552733  0.2358819  0.0101084

 Al 
  0.4992426  0.0000545  0.0092693

 Al 
  0.5071147  0.2706809  0.2434050

 Al 
  0.7455015  0.0024850  0.2396466

 Al 
  0.7651255  0.2519912  0.0025135

 Al 
  0.0029900  0.4863980  0.0100527

 Al 
  0.0054329  0.7349884  0.2432132

 Al 
  0.2513378  0.5090169  0.2382110

 Al 
  0.2546211  0.7512239  0.0160896

 Al 
  0.0069006  0.9966512  0.4834835

 Al 
  0.9992661  0.2511732  0.7233132

 Al 
  0.2574675  0.9943332  0.7344500

 Al 
  0.2524491  0.2511856  0.5091642

 Al 
  0.9990075  0.5016917  0.5075949

 Al 
  0.9957391  0.7351988  0.7398990

 Al 
  0.2481474  0.4776966  0.7694223

 Al 
  0.2544082  0.7394003  0.4972254

 Al 
  0.4959160  0.5292263  0.0002500

 Al 
  0.5035716  0.7471202  0.2526694

 Al 
  0.7419360  0.5214816  0.2563252

 Al 
  0.7555468  0.7427578  0.9978306

 Al 
  0.5084922  0.0086159  0.4803289

 Al 
  0.4975892  0.2529528  0.7715101

 Al 
  0.7545023  0.0047708  0.7637431

 Al 
  0.7541347  0.2468393  0.4968739

 Al 
  0.4584909  0.5094104  0.5134684

 Al 
  0.4881664  0.7452242  0.7411490

 Al 
  0.7385662  0.4946884  0.7635426

 Al 
  0.7434780  0.7444953  0.5100106

