32 
charge = 0 
 Al 
  0.0020680  0.0147963  0.9820009

 Al 
  0.0180078  0.2554750  0.2468059

 Al 
  0.2450213  0.9917368  0.2463343

 Al 
  0.2545641  0.2361232  0.0111727

 Al 
  0.4982600  0.9994901  0.0075170

 Al 
  0.5050988  0.2714680  0.2407208

 Al 
  0.7461004  0.0015111  0.2417925

 Al 
  0.7666823  0.2510544  0.0023675

 Al 
  0.0027994  0.4876145  0.0099908

 Al 
  0.0066247  0.7327273  0.2448951

 Al 
  0.2485224  0.5109524  0.2405933

 Al 
  0.2512982  0.7503193  0.0150512

 Al 
  0.0108980  0.9985434  0.4861999

 Al 
  0.0004542  0.2490087  0.7259801

 Al 
  0.2586196  0.9939706  0.7339129

 Al 
  0.2554502  0.2492104  0.5115576

 Al 
  0.9931959  0.5044998  0.5079588

 Al 
  0.9978590  0.7372568  0.7395871

 Al 
  0.2478108  0.4781137  0.7693790

 Al 
  0.2527338  0.7396057  0.4939372

 Al 
  0.4962799  0.5299317  0.0025506

 Al 
  0.5042535  0.7486251  0.2525717

 Al 
  0.7427454  0.5221598  0.2534974

 Al 
  0.7575182  0.7454037  0.9954396

 Al 
  0.5066940  0.0070467  0.4800567

 Al 
  0.4983998  0.2506299  0.7698790

 Al 
  0.7554923  0.0042708  0.7632753

 Al 
  0.7535530  0.2464333  0.4954953

 Al 
  0.4559675  0.5082793  0.5129004

 Al 
  0.4865700  0.7449545  0.7419954

 Al 
  0.7387134  0.4946772  0.7639894

 Al 
  0.7417455  0.7441092  0.5105935

