32 
charge = 0 
 Al 
  0.0027585  0.0140624  0.9816556

 Al 
  0.0192602  0.2552992  0.2479345

 Al 
  0.2454433  0.9923036  0.2457750

 Al 
  0.2543005  0.2362940  0.0115254

 Al 
  0.4978528  0.9992327  0.0067373

 Al 
  0.5042411  0.2717242  0.2396602

 Al 
  0.7465088  0.0011101  0.2426835

 Al 
  0.7671761  0.2507091  0.0023848

 Al 
  0.0026843  0.4882592  0.0097990

 Al 
  0.0069885  0.7319811  0.2456265

 Al 
  0.2474110  0.5115638  0.2416972

 Al 
  0.2498131  0.7500272  0.0143421

 Al 
  0.0124288  0.9992451  0.4873880

 Al 
  0.0009294  0.2480607  0.7273006

 Al 
  0.2590354  0.9938048  0.7338201

 Al 
  0.2567200  0.2483491  0.5123719

 Al 
  0.9908061  0.5056309  0.5079674

 Al 
  0.9988256  0.7382135  0.7396218

 Al 
  0.2475892  0.4785023  0.7693654

 Al 
  0.2518118  0.7399324  0.4926019

 Al 
  0.4964569  0.5299787  0.0035122

 Al 
  0.5044713  0.7493429  0.2525816

 Al 
  0.7431550  0.5222081  0.2523538

 Al 
  0.7583882  0.7465942  0.9944508

 Al 
  0.5058821  0.0063994  0.4800876

 Al 
  0.4988008  0.2496275  0.7691030

 Al 
  0.7558017  0.0039911  0.7628917

 Al 
  0.7532387  0.2463356  0.4948901

 Al 
  0.4553772  0.5075739  0.5125699

 Al 
  0.4859524  0.7449384  0.7424447

 Al 
  0.7388397  0.4946958  0.7640340

 Al 
  0.7410512  0.7440065  0.5108200

