32 
charge = 0 
 Al 
  0.0035370  0.0132011  0.9813734

 Al 
  0.0204631  0.2550827  0.2491622

 Al 
  0.2459123  0.9929199  0.2452094

 Al 
  0.2540468  0.2365143  0.0118224

 Al 
  0.4974444  0.9989530  0.0059143

 Al 
  0.5033575  0.2719445  0.2386119

 Al 
  0.7470175  0.0007005  0.2435907

 Al 
  0.7675994  0.2503750  0.0024491

 Al 
  0.0025469  0.4889894  0.0095082

 Al 
  0.0072744  0.7313450  0.2463925

 Al 
  0.2463195  0.5120724  0.2428803

 Al 
  0.2482439  0.7497735  0.0134672

 Al 
  0.0139164  0.9999134  0.4886318

 Al 
  0.0014059  0.2470781  0.7287585

 Al 
  0.2594253  0.9936228  0.7338053

 Al 
  0.2580206  0.2474494  0.5131058

 Al 
  0.9883818  0.5067509  0.5079093

 Al 
  0.9998626  0.7392481  0.7397468

 Al 
  0.2473182  0.4790159  0.7693518

 Al 
  0.2507524  0.7404015  0.4912628

 Al 
  0.4966499  0.5298946  0.0044924

 Al 
  0.5046569  0.7501250  0.2526125

 Al 
  0.7436080  0.5221326  0.2512029

 Al 
  0.7593028  0.7478615  0.9934483

 Al 
  0.5050196  0.0057398  0.4802002

 Al 
  0.4992426  0.2485879  0.7682615

 Al 
  0.7560616  0.0036657  0.7623892

 Al 
  0.7528786  0.2462725  0.4942577

 Al 
  0.4550307  0.5067361  0.5121813

 Al 
  0.4853460  0.7449681  0.7429533

 Al 
  0.7390018  0.4947292  0.7640030

 Al 
  0.7403557  0.7439347  0.5110440

