32 
charge = 0 
 Al 
  0.0024021  0.0144448  0.9818202

 Al 
  0.0186402  0.2553921  0.2473578

 Al 
  0.2452267  0.9920140  0.2460559

 Al 
  0.2544305  0.2362037  0.0113559

 Al 
  0.4980570  0.9993639  0.0071333

 Al 
  0.5046743  0.2716004  0.2401886

 Al 
  0.7462923  0.0013118  0.2422368

 Al 
  0.7669385  0.2508799  0.0023699

 Al 
  0.0027449  0.4879263  0.0099067

 Al 
  0.0068153  0.7323412  0.2452564

 Al 
  0.2479654  0.5112705  0.2411353

 Al 
  0.2505668  0.7501683  0.0147183

 Al 
  0.0116677  0.9988986  0.4867878

 Al 
  0.0006918  0.2485397  0.7266224

 Al 
  0.2588300  0.9938889  0.7338572

 Al 
  0.2560814  0.2487847  0.5119747

 Al 
  0.9920066  0.5050666  0.5079711

 Al 
  0.9983330  0.7377259  0.7395921

 Al 
  0.2477056  0.4782919  0.7693728

 Al 
  0.2522907  0.7397517  0.4932701

 Al 
  0.4963665  0.5299713  0.0030283

 Al 
  0.5043661  0.7489753  0.2525729

 Al 
  0.7429447  0.5221994  0.2529268

 Al 
  0.7579476  0.7459891  0.9949470

 Al 
  0.5062942  0.0067249  0.4800616

 Al 
  0.4985954  0.2501337  0.7694990

 Al 
  0.7556532  0.0041359  0.7630984

 Al 
  0.7534021  0.2463801  0.4951958

 Al 
  0.4556420  0.5079439  0.5127419

 Al 
  0.4862606  0.7449408  0.7422120

 Al 
  0.7387716  0.4946847  0.7640216

 Al 
  0.7413989  0.7440535  0.5107074

