32 
charge = 0 
 Al 
  0.0053364  0.0111084  0.9810269

 Al 
  0.0226919  0.2545344  0.2518811

 Al 
  0.2469816  0.9942738  0.2440647

 Al 
  0.2535766  0.2371170  0.0122073

 Al 
  0.4966413  0.9983268  0.0041520

 Al 
  0.5015383  0.2722538  0.2365960

 Al 
  0.7483268  0.9998614  0.2454272

 Al 
  0.7682355  0.2497376  0.0027189

 Al 
  0.0022053  0.4906737  0.0086419

 Al 
  0.0075714  0.7304700  0.2480026

 Al 
  0.2442416  0.5127543  0.2454371

 Al 
  0.2449062  0.7493787  0.0112408

 Al 
  0.0167219  0.0011249  0.4912504

 Al 
  0.0023613  0.2450683  0.7320405

 Al 
  0.2601257  0.9932095  0.7340255

 Al 
  0.2606591  0.2455547  0.5143161

 Al 
  0.9834823  0.5088993  0.5076370

 Al 
  0.0021199  0.7415227  0.7402542

 Al 
  0.2466413  0.4803982  0.7693184

 Al 
  0.2482823  0.7417492  0.4886355

 Al 
  0.4970633  0.5293550  0.0064675

 Al 
  0.5049168  0.7518576  0.2527239

 Al 
  0.7446240  0.5216202  0.2488911

 Al 
  0.7612272  0.7505866  0.9914274

 Al 
  0.5031706  0.0043958  0.4806730

 Al 
  0.5002413  0.2464333  0.7664039

 Al 
  0.7564353  0.0028810  0.7610205

 Al 
  0.7520383  0.2462514  0.4929335

 Al 
  0.4550765  0.5047250  0.5112519

 Al 
  0.4841728  0.7451426  0.7441228

 Al 
  0.7394325  0.4948319  0.7637270

 Al 
  0.7389560  0.7439025  0.5114833

