32 
charge = 0 
 Al 
  0.0095032  0.0058883  0.9813239

 Al 
  0.0260779  0.2531236  0.2578598

 Al 
  0.2494604  0.9971462  0.2419323

 Al 
  0.2527684  0.2389733  0.0118818

 Al 
  0.4953208  0.9968343  0.0004703

 Al 
  0.4980224  0.2722081  0.2333003

 Al 
  0.7518774  0.9981783  0.2488862

 Al 
  0.7687070  0.2485793  0.0037424

 Al 
  0.0012970  0.4944916  0.0059910

 Al 
  0.0068536  0.7306816  0.2512017

 Al 
  0.2409212  0.5126528  0.2507289

 Al 
  0.2381541  0.7489765  0.0054750

 Al 
  0.0211858  0.0029120  0.4965175

 Al 
  0.0041990  0.2414076  0.7393966

 Al 
  0.2611529  0.9922714  0.7355156

 Al 
  0.2654782  0.2417269  0.5156218

 Al 
  0.9742983  0.5123137  0.5067893

 Al 
  0.0069489  0.7464346  0.7420709

 Al 
  0.2449458  0.4842186  0.7691142

 Al 
  0.2427145  0.7456599  0.4841592

 Al 
  0.4978491  0.5270890  0.0100292

 Al 
  0.5049701  0.7556371  0.2529912

 Al 
  0.7468244  0.5194013  0.2445263

 Al 
  0.7650351  0.7562905  0.9877184

 Al 
  0.4993552  0.0017660  0.4824675

 Al 
  0.5025048  0.2422590  0.7623546

 Al 
  0.7566098  0.0009269  0.7570492

 Al 
  0.7500520  0.2465942  0.4903136

 Al 
  0.4578956  0.5000965  0.5090441

 Al 
  0.4821766  0.7457354  0.7467638

 Al 
  0.7406032  0.4951710  0.7624969

 Al 
  0.7362358  0.7443530  0.5122655

