32 
charge = 0 
 Al 
  0.0084389  0.0072645  0.9811222

 Al 
  0.0253948  0.2534986  0.2563549

 Al 
  0.2488218  0.9964420  0.2424249

 Al 
  0.2529565  0.2384350  0.0121145

 Al 
  0.4955943  0.9972303  0.0013762

 Al 
  0.4988528  0.2723133  0.2339934

 Al 
  0.7509059  0.9985917  0.2480781

 Al 
  0.7686810  0.2488540  0.0034392

 Al 
  0.0015470  0.4935275  0.0067385

 Al 
  0.0072039  0.7303648  0.2504418

 Al 
  0.2416143  0.5128595  0.2494431

 Al 
  0.2397753  0.7490372  0.0070083

 Al 
  0.0202564  0.0025531  0.4952502

 Al 
  0.0037572  0.2422281  0.7375303

 Al 
  0.2609475  0.9925078  0.7350168

 Al 
  0.2643879  0.2426538  0.5154386

 Al 
  0.9764331  0.5116133  0.5070108

 Al 
  0.0057510  0.7452143  0.7415474

 Al 
  0.2453888  0.4831766  0.7691921

 Al 
  0.2440993  0.7445857  0.4851294

 Al 
  0.4976709  0.5277660  0.0092310

 Al 
  0.5050146  0.7546916  0.2529318

 Al 
  0.7462799  0.5200733  0.2455534

 Al 
  0.7641330  0.7548908  0.9885662

 Al 
  0.5002809  0.0024009  0.4819341

 Al 
  0.5019269  0.2432417  0.7633682

 Al 
  0.7566321  0.0014430  0.7581617

 Al 
  0.7505656  0.2464643  0.4909386

 Al 
  0.4568920  0.5012537  0.5096109

 Al 
  0.4826110  0.7455770  0.7460980

 Al 
  0.7402864  0.4950733  0.7628657

 Al 
  0.7368955  0.7441736  0.5120885

