32 
charge = 0 
 Al 
  0.0089723  0.0065789  0.9812126

 Al 
  0.0257512  0.2533117  0.2571098

 Al 
  0.2491411  0.9967972  0.2421737

 Al 
  0.2528612  0.2386986  0.0120105

 Al 
  0.4954520  0.9970336  0.0009207

 Al 
  0.4984320  0.2722687  0.2336345

 Al 
  0.7513861  0.9983837  0.2484889

 Al 
  0.7687008  0.2487154  0.0035877

 Al 
  0.0014232  0.4940114  0.0063697

 Al 
  0.0070430  0.7305010  0.2508267

 Al 
  0.2412554  0.5127704  0.2500928

 Al 
  0.2389548  0.7490038  0.0062447

 Al 
  0.0207391  0.0027400  0.4958913

 Al 
  0.0039800  0.2418073  0.7384647

 Al 
  0.2610551  0.9923890  0.7352569

 Al 
  0.2649460  0.2421860  0.5155413

 Al 
  0.9753478  0.5119784  0.5068994

 Al 
  0.0063536  0.7458282  0.7418049

 Al 
  0.2451673  0.4836939  0.7691562

 Al 
  0.2434013  0.7451178  0.4846295

 Al 
  0.4977625  0.5274343  0.0096406

 Al 
  0.5049960  0.7551668  0.2529627

 Al 
  0.7465534  0.5197441  0.2450324

 Al 
  0.7645909  0.7555963  0.9881343

 Al 
  0.4998131  0.0020803  0.4821952

 Al 
  0.5022165  0.2427429  0.7628595

 Al 
  0.7566259  0.0011868  0.7576135

 Al 
  0.7503094  0.2465262  0.4906230

 Al 
  0.4573722  0.5006708  0.5093275

 Al 
  0.4823870  0.7456562  0.7464321

 Al 
  0.7404435  0.4951215  0.7626850

 Al 
  0.7365625  0.7442577  0.5121789

