32 
charge = 0 
 Al 
  0.0058289  0.0105156  0.9809898

 Al 
  0.0232031  0.2543760  0.2526051

 Al 
  0.2472724  0.9946315  0.2437812

 Al 
  0.2534664  0.2373026  0.0122519

 Al 
  0.4964494  0.9981560  0.0036929

 Al 
  0.5010792  0.2722996  0.2361183

 Al 
  0.7487117  0.9996498  0.2458839

 Al 
  0.7683518  0.2495842  0.0028155

 Al 
  0.0021076  0.4911304  0.0083696

 Al 
  0.0075813  0.7303463  0.2484147

 Al 
  0.2437553  0.5128496  0.2461029

 Al 
  0.2440461  0.7493020  0.0105972

 Al 
  0.0173779  0.0013984  0.4919212

 Al 
  0.0025989  0.2445696  0.7329229

 Al 
  0.2602829  0.9930981  0.7341357

 Al 
  0.2613113  0.2450696  0.5145624

 Al 
  0.9822657  0.5094042  0.5075454

 Al 
  0.0027140  0.7421242  0.7404312

 Al 
  0.2464482  0.4808104  0.7693060

 Al 
  0.2476078  0.7421638  0.4880031

 Al 
  0.4971685  0.5291483  0.0069539

 Al 
  0.5049577  0.7523192  0.2527573

 Al 
  0.7448951  0.5214210  0.2483169

 Al 
  0.7617197  0.7512982  0.9909287

 Al 
  0.5026892  0.0040592  0.4808401

 Al 
  0.5005111  0.2458888  0.7659101

 Al 
  0.7564984  0.0026595  0.7606059

 Al 
  0.7518056  0.2462675  0.4925957

 Al 
  0.4552386  0.5041681  0.5109933

 Al 
  0.4838919  0.7452044  0.7444396

 Al 
  0.7395599  0.4948666  0.7636169

 Al 
  0.7386070  0.7439199  0.5115898

