32 
charge = 0 
 Al 
  0.0139251  0.9998713  0.9832298

 Al 
  0.0276979  0.2514195  0.2641577

 Al 
  0.2522289  0.9999097  0.2402171

 Al 
  0.2519393  0.2418692  0.0096171

 Al 
  0.4947206  0.9949594  0.9968219

 Al 
  0.4949866  0.2708975  0.2315022

 Al 
  0.7565170  0.9964668  0.2518526

 Al 
  0.7682602  0.2474296  0.0052844

 Al 
  0.0000569  0.4984469  0.0023514

 Al 
  0.0040270  0.7341233  0.2539330

 Al 
  0.2390030  0.5105453  0.2557274

 Al 
  0.2321779  0.7488441  0.9987228

 Al 
  0.0235805  0.0038983  0.5013019

 Al 
  0.0059799  0.2388260  0.7473170

 Al 
  0.2616554  0.9913643  0.7386392

 Al 
  0.2689557  0.2381800  0.5153792

 Al 
  0.9667318  0.5139968  0.5059589

 Al 
  0.0117420  0.7512994  0.7445560

 Al 
  0.2430659  0.4890599  0.7684026

 Al 
  0.2374313  0.7505470  0.4813524

 Al 
  0.4983677  0.5236671  0.0124957

 Al 
  0.5044020  0.7594810  0.2530753

 Al 
  0.7489741  0.5158717  0.2406490

 Al 
  0.7682380  0.7618063  0.9848448

 Al 
  0.4958604  0.9991770  0.4852557

 Al 
  0.5050319  0.2386986  0.7581729

 Al 
  0.7560938  0.9986548  0.7515630

 Al 
  0.7478070  0.2474246  0.4879474

 Al 
  0.4641070  0.4956574  0.5066581

 Al 
  0.4809217  0.7462700  0.7495099

 Al 
  0.7420103  0.4956673  0.7606938

 Al 
  0.7335082  0.7456722  0.5128100

