32 
charge = 0 
 Al 
  0.0125464  0.0018031  0.9824204

 Al 
  0.0274132  0.2519813  0.2621615

 Al 
  0.2513366  0.9990718  0.2406960

 Al 
  0.2522214  0.2408259  0.0105812

 Al 
  0.4947998  0.9955955  0.9979518

 Al 
  0.4958653  0.2714903  0.2318623

 Al 
  0.7549403  0.9970076  0.2509863

 Al 
  0.7684991  0.2478058  0.0047522

 Al 
  0.0004901  0.4972155  0.0035902

 Al 
  0.0051767  0.7326345  0.2531632

 Al 
  0.2394411  0.5114314  0.2542151

 Al 
  0.2338968  0.7488775  0.0008948

 Al 
  0.0231078  0.0036644  0.4998861

 Al 
  0.0054230  0.2394807  0.7447861

 Al 
  0.2615601  0.9916279  0.7374499

 Al 
  0.2680697  0.2392344  0.5156391

 Al 
  0.9688642  0.5136998  0.5061952

 Al 
  0.0102792  0.7498119  0.7437367

 Al 
  0.2436575  0.4874449  0.7687181

 Al 
  0.2389770  0.7489555  0.4820021

 Al 
  0.4982488  0.5248453  0.0118868

 Al 
  0.5046495  0.7582929  0.2530902

 Al 
  0.7483206  0.5171130  0.2418073

 Al 
  0.7673444  0.7601319  0.9856269

 Al 
  0.4968838  0.9999950  0.4842731

 Al 
  0.5042028  0.2397220  0.7594834

 Al 
  0.7563289  0.9993862  0.7534528

 Al 
  0.7485360  0.2471115  0.4886503

 Al 
  0.4617804  0.4969643  0.5074130

 Al 
  0.4812064  0.7461376  0.7486511

 Al 
  0.7415586  0.4954940  0.7612977

 Al 
  0.7343782  0.7451475  0.5126788

