32 
charge = 0 
 Al 
  0.0130179  0.0011485  0.9826716

 Al 
  0.0275345  0.2517932  0.2628385

 Al 
  0.2516373  0.9993602  0.2405265

 Al 
  0.2521286  0.2411650  0.0102817

 Al 
  0.4947589  0.9953851  0.9975657

 Al 
  0.4955572  0.2713108  0.2317163

 Al 
  0.7554638  0.9968244  0.2512871

 Al 
  0.7684285  0.2476808  0.0049280

 Al 
  0.0003490  0.4976363  0.0031781

 Al 
  0.0048154  0.7330949  0.2534355

 Al 
  0.2392740  0.5111529  0.2547362

 Al 
  0.2332917  0.7488676  0.0001584

 Al 
  0.0233008  0.0037511  0.5003775

 Al 
  0.0056123  0.2392394  0.7456425

 Al 
  0.2615997  0.9915351  0.7378298

 Al 
  0.2683951  0.2388681  0.5155710

 Al 
  0.9681105  0.5138260  0.5061111

 Al 
  0.0107829  0.7503230  0.7440139

 Al 
  0.2434545  0.4879845  0.7686241

 Al 
  0.2384350  0.7494926  0.4817546

 Al 
  0.4982946  0.5244555  0.0121133

 Al 
  0.5045728  0.7587001  0.2530914

 Al 
  0.7485459  0.5167046  0.2414076

 Al 
  0.7676625  0.7607086  0.9853473

 Al 
  0.4965262  0.9997191  0.4845948

 Al 
  0.5044800  0.2393632  0.7590379

 Al 
  0.7562571  0.9991387  0.7528291

 Al 
  0.7482909  0.2472118  0.4884065

 Al 
  0.4625303  0.4965076  0.5071568

 Al 
  0.4810962  0.7461883  0.7489431

 Al 
  0.7417120  0.4955510  0.7610960

 Al 
  0.7340849  0.7453134  0.5127283

