32 
charge = 0 
 Al 
  0.0105515  0.0045072  0.9816098

 Al 
  0.0266410  0.2527424  0.2593362

 Al 
  0.2500965  0.9978231  0.2414781

 Al 
  0.2525853  0.2395537  0.0115465

 Al 
  0.4950943  0.9964284  0.9995941

 Al 
  0.4972452  0.2720373  0.2327125

 Al 
  0.7528798  0.9977749  0.2496423

 Al 
  0.7686822  0.2483157  0.0040654

 Al 
  0.0010371  0.4954346  0.0052101

 Al 
  0.0063945  0.7311705  0.2519145

 Al 
  0.2403297  0.5123397  0.2519591

 Al 
  0.2366232  0.7489332  0.0039293

 Al 
  0.0219729  0.0032127  0.4977179

 Al 
  0.0046248  0.2406725  0.7412368

 Al 
  0.2613225  0.9920425  0.7360910

 Al 
  0.2664608  0.2408433  0.5157133

 Al 
  0.9723170  0.5128966  0.5065764

 Al 
  0.0081122  0.7476152  0.7426192

 Al 
  0.2445052  0.4852854  0.7690114

 Al 
  0.2413853  0.7467601  0.4833127

 Al 
  0.4980050  0.5263675  0.0107420

 Al 
  0.5048933  0.7565578  0.2530407

 Al 
  0.7473491  0.5186761  0.2435572

 Al 
  0.7658767  0.7576395  0.9869437

 Al 
  0.4984741  0.0011534  0.4830404

 Al 
  0.5030778  0.2413420  0.7613633

 Al 
  0.7565492  0.0004084  0.7558858

 Al 
  0.7495396  0.2467464  0.4897208

 Al 
  0.4590602  0.4989852  0.5084847

 Al 
  0.4817942  0.7458851  0.7474160

 Al 
  0.7409237  0.4952737  0.7621058

 Al 
  0.7355972  0.7445770  0.5124239

