32 
charge = 0 
 Al 
  0.0151985  0.9980372  0.9842149

 Al 
  0.0277474  0.2508688  0.2660598

 Al 
  0.2530927  0.0006720  0.2398198

 Al 
  0.2516422  0.2429966  0.0084550

 Al 
  0.4947676  0.9943122  0.9957663

 Al 
  0.4942317  0.2701376  0.2313635

 Al 
  0.7581196  0.9959507  0.2526162

 Al 
  0.7679409  0.2470422  0.0058252

 Al 
  0.9996003  0.4995928  0.0011076

 Al 
  0.0026867  0.7359277  0.2545579

 Al 
  0.2387270  0.5095144  0.2571024

 Al 
  0.2307448  0.7488008  0.9966672

 Al 
  0.0237389  0.0040666  0.5025556

 Al 
  0.0065083  0.2383620  0.7497488

 Al 
  0.2616851  0.9911440  0.7399770

 Al 
  0.2695745  0.2372593  0.5149597

 Al 
  0.9649733  0.5140538  0.5057670

 Al 
  0.0130600  0.7526583  0.7453307

 Al 
  0.2425177  0.4906688  0.7679781

 Al 
  0.2361207  0.7520667  0.4809700

 Al 
  0.4984295  0.5224655  0.0128954

 Al 
  0.5041038  0.7605675  0.2530073

 Al 
  0.7495644  0.5145810  0.2395995

 Al 
  0.7689496  0.7633211  0.9842273

 Al 
  0.4949842  0.9983825  0.4862890

 Al 
  0.5058685  0.2378298  0.7569415

 Al 
  0.7558054  0.9979617  0.7496188

 Al 
  0.7470942  0.2477650  0.4873286

 Al 
  0.4666588  0.4945324  0.5059440

 Al 
  0.4807708  0.7463405  0.7503168

 Al 
  0.7424298  0.4958430  0.7601010

 Al 
  0.7326617  0.7462774  0.5128880

