32 
charge = 0 
 Al 
  0.0174385  0.9946673  0.9867779

 Al 
  0.0271732  0.2497859  0.2696686

 Al 
  0.2547906  0.0020086  0.2392406

 Al 
  0.2509839  0.2455609  0.0055208

 Al 
  0.4952614  0.9929805  0.9938060

 Al 
  0.4930412  0.2680449  0.2317026

 Al 
  0.7614747  0.9949817  0.2539119

 Al 
  0.7670449  0.2461772  0.0069291

 Al 
  0.9985867  0.5016905  0.9986040

 Al 
  0.9994419  0.7404745  0.2554081

 Al 
  0.2385451  0.5070900  0.2595577

 Al 
  0.2287498  0.7486313  0.9929459

 Al 
  0.0231276  0.0042721  0.5046854

 Al 
  0.0075120  0.2379474  0.7544466

 Al 
  0.2615625  0.9908631  0.7431377

 Al 
  0.2700498  0.2357965  0.5136738

 Al 
  0.9624981  0.5135228  0.5055096

 Al 
  0.0152530  0.7550666  0.7466573

 Al 
  0.2415512  0.4939087  0.7666762

 Al 
  0.2341815  0.7548686  0.4809502

 Al 
  0.4983862  0.5199384  0.0131045

 Al 
  0.5033538  0.7624585  0.2526781

 Al 
  0.7505779  0.5118286  0.2377333

 Al 
  0.7698220  0.7659509  0.9834315

 Al 
  0.4936525  0.9967836  0.4885674

 Al 
  0.5076605  0.2365019  0.7546495

 Al 
  0.7550765  0.9966932  0.7454829

 Al 
  0.7456574  0.2485186  0.4863113

 Al 
  0.4725212  0.4927887  0.5045988

 Al 
  0.4808908  0.7462774  0.7518143

 Al 
  0.7431365  0.4961982  0.7589513

 Al 
  0.7309935  0.7477254  0.5128669

