32 
charge = 0 
 Al 
  0.0167380  0.9957465  0.9858274

 Al 
  0.0274652  0.2501460  0.2684867

 Al 
  0.2542226  0.0015866  0.2394040

 Al 
  0.2512128  0.2446525  0.0065925

 Al 
  0.4950349  0.9934310  0.9944433

 Al 
  0.4933951  0.2688357  0.2315009

 Al 
  0.7603275  0.9952960  0.2535073

 Al 
  0.7673840  0.2464866  0.0065578

 Al 
  0.9989419  0.5010148  0.9994406

 Al 
  0.0006089  0.7388161  0.2551804

 Al 
  0.2385600  0.5079476  0.2587718

 Al 
  0.2292832  0.7487055  0.9941253

 Al 
  0.0234716  0.0042176  0.5040221

 Al 
  0.0071828  0.2380130  0.7528934

 Al 
  0.2616281  0.9909299  0.7420078

 Al 
  0.2700015  0.2362284  0.5141676

 Al 
  0.9631739  0.5137902  0.5055777

 Al 
  0.0145896  0.7543030  0.7462564

 Al 
  0.2418556  0.4928209  0.7671910

 Al 
  0.2347285  0.7539701  0.4808500

 Al 
  0.4984271  0.5208059  0.0131219

 Al 
  0.5036285  0.7618682  0.2528192

 Al 
  0.7502624  0.5127766  0.2383285

 Al 
  0.7696141  0.7651255  0.9836357

 Al 
  0.4940374  0.9973256  0.4877704

 Al 
  0.5070380  0.2368868  0.7553933

 Al 
  0.7553426  0.9970979  0.7469073

 Al 
  0.7461438  0.2482575  0.4866195

 Al 
  0.4704433  0.4932986  0.5050394

 Al 
  0.4807856  0.7463306  0.7513291

 Al 
  0.7429236  0.4960806  0.7593312

 Al 
  0.7315492  0.7472068  0.5129028

