32 
charge = 0 
 Al 
  0.0180907  0.9936340  0.9878397

 Al 
  0.0267759  0.2494233  0.2708356

 Al 
  0.2553648  0.0024083  0.2391045

 Al 
  0.2507463  0.2465299  0.0043488

 Al 
  0.4955572  0.9925214  0.9931786

 Al 
  0.4927268  0.2671489  0.2319947

 Al 
  0.7626603  0.9946760  0.2542968

 Al 
  0.7666588  0.2458406  0.0073066

 Al 
  0.9982105  0.5023501  0.9977637

 Al 
  0.9981870  0.7422801  0.2555851

 Al 
  0.2385686  0.5061841  0.2603200

 Al 
  0.2283550  0.7485335  0.9918370

 Al 
  0.0226387  0.0043166  0.5053116

 Al 
  0.0078375  0.2379511  0.7559985

 Al 
  0.2614747  0.9908284  0.7443518

 Al 
  0.2699891  0.2354190  0.5131144

 Al 
  0.9619709  0.5131714  0.5054552

 Al 
  0.0158445  0.7557967  0.7470076

 Al 
  0.2412665  0.4950101  0.7660623

 Al 
  0.2337335  0.7557324  0.4811544

 Al 
  0.4983169  0.5190337  0.0130006

 Al 
  0.5030518  0.7630080  0.2525024

 Al 
  0.7508750  0.5108460  0.2371591

 Al 
  0.7699433  0.7667356  0.9832867

 Al 
  0.4933246  0.9962242  0.4894102

 Al 
  0.5083164  0.2361715  0.7539169

 Al 
  0.7547869  0.9963046  0.7440040

 Al 
  0.7451599  0.2487884  0.4860304

 Al 
  0.4747401  0.4923444  0.5041632

 Al 
  0.4810641  0.7461920  0.7522883

 Al 
  0.7433246  0.4963170  0.7585701

 Al 
  0.7304366  0.7482810  0.5127989

