32 
charge = 0 
 Al 
  0.0170932  0.9952007  0.9862890

 Al 
  0.0273316  0.2499653  0.2690795

 Al 
  0.2545060  0.0018007  0.2393186

 Al 
  0.2510990  0.2450993  0.0060690

 Al 
  0.4951401  0.9932070  0.9941228

 Al 
  0.4932132  0.2684533  0.2315913

 Al 
  0.7608967  0.9951376  0.2537127

 Al 
  0.7672194  0.2463356  0.0067422

 Al 
  0.9987674  0.5013551  0.9990223

 Al 
  0.0000371  0.7396268  0.2553017

 Al 
  0.2385476  0.5075244  0.2591679

 Al 
  0.2289998  0.7486709  0.9935275

 Al 
  0.0233169  0.0042473  0.5043587

 Al 
  0.0073474  0.2379709  0.7536706

 Al 
  0.2615984  0.9908928  0.7425622

 Al 
  0.2700398  0.2360056  0.5139288

 Al 
  0.9628174  0.5136676  0.5055418

 Al 
  0.0149300  0.7546891  0.7464630

 Al 
  0.2417009  0.4933630  0.7669447

 Al 
  0.2344426  0.7544243  0.4808871

 Al 
  0.4984097  0.5203765  0.0131231

 Al 
  0.5034949  0.7621677  0.2527523

 Al 
  0.7504232  0.5123076  0.2380278

 Al 
  0.7697292  0.7655438  0.9835268

 Al 
  0.4938369  0.9970558  0.4881627

 Al 
  0.5073462  0.2366875  0.7550196

 Al 
  0.7552126  0.9968937  0.7462019

 Al 
  0.7459024  0.2483862  0.4864623

 Al 
  0.4714655  0.4930350  0.5048178

 Al 
  0.4808302  0.7463084  0.7515729

 Al 
  0.7430338  0.4961388  0.7591419

 Al 
  0.7312720  0.7474618  0.5128892

