32 
charge = 0 
 Al 
  0.0159905  0.9968702  0.9849760

 Al 
  0.0276558  0.2505062  0.2672863

 Al 
  0.2536582  0.0011423  0.2395970

 Al 
  0.2514319  0.2437998  0.0075702

 Al 
  0.4948715  0.9938753  0.9950955

 Al 
  0.4937899  0.2695300  0.2313871

 Al 
  0.7592112  0.9956190  0.2530766

 Al 
  0.7676823  0.2467724  0.0061891

 Al 
  0.9992797  0.5003168  0.0002747

 Al 
  0.0016905  0.7373014  0.2548983

 Al 
  0.2386181  0.5087570  0.2579563

 Al 
  0.2299502  0.7487600  0.9953666

 Al 
  0.0236746  0.0041508  0.5033142

 Al 
  0.0068487  0.2381503  0.7513316

 Al 
  0.2616690  0.9910252  0.7409547

 Al 
  0.2698443  0.2367160  0.5145958

 Al 
  0.9639981  0.5139684  0.5056643

 Al 
  0.0138570  0.7535023  0.7458121

 Al 
  0.2421774  0.4917417  0.7676204

 Al 
  0.2353745  0.7530357  0.4808561

 Al 
  0.4984407  0.5216462  0.0130526

 Al 
  0.5038773  0.7612383  0.2529281

 Al 
  0.7499245  0.5136924  0.2389486

 Al 
  0.7693233  0.7642505  0.9838993

 Al 
  0.4944805  0.9978565  0.4870130

 Al 
  0.5064428  0.2373286  0.7561556

 Al 
  0.7555851  0.9975212  0.7482823

 Al 
  0.7466202  0.2480063  0.4869586

 Al 
  0.4684929  0.4938790  0.5054861

 Al 
  0.4807472  0.7463504  0.7508316

 Al 
  0.7426872  0.4959618  0.7597149

 Al 
  0.7321048  0.7467242  0.5129090

