32 
charge = 0 
 Al 
  0.0204916  0.9891107  0.9959309

 Al 
  0.0225422  0.2474036  0.2768712

 Al 
  0.2587211  0.0042325  0.2388421

 Al 
  0.2494802  0.2530308  0.9963022

 Al 
  0.4986003  0.9899696  0.9898879

 Al 
  0.4916823  0.2601517  0.2351542

 Al 
  0.7697899  0.9933506  0.2561631

 Al 
  0.7636602  0.2431971  0.0094612

 Al 
  0.9957564  0.5057472  0.9932949

 Al 
  0.9899931  0.7546248  0.2558104

 Al 
  0.2391837  0.5006571  0.2642988

 Al 
  0.2291038  0.7473256  0.9875885

 Al 
  0.0171650  0.0044466  0.5082112

 Al 
  0.0094599  0.2391268  0.7644968

 Al 
  0.2606938  0.9915091  0.7523984

 Al 
  0.2677491  0.2344537  0.5090218

 Al 
  0.9618930  0.5099352  0.5053153

 Al 
  0.0173345  0.7593003  0.7476462

 Al 
  0.2400983  0.5012611  0.7603312

 Al 
  0.2331320  0.7596505  0.4840243

 Al 
  0.4973256  0.5131800  0.0109042

 Al 
  0.5008366  0.7651849  0.2508205

 Al 
  0.7521583  0.5047040  0.2343671

 Al 
  0.7688357  0.7704532  0.9834575

 Al 
  0.4924991  0.9927714  0.4950460

 Al 
  0.5125501  0.2353287  0.7500347

 Al 
  0.7527944  0.9945522  0.7349116

 Al 
  0.7421303  0.2503515  0.4849983

 Al 
  0.4895983  0.4910363  0.5017103

 Al 
  0.4834030  0.7451005  0.7546272

 Al 
  0.7438097  0.4969927  0.7564415

 Al 
  0.7275271  0.7518613  0.5116318

