32 
charge = 0 
 Al 
  0.0192268  0.9917232  0.9903322

 Al 
  0.0256485  0.2486907  0.2731313

 Al 
  0.2565517  0.0031496  0.2389152

 Al 
  0.2502599  0.2486696  0.0017066

 Al 
  0.4963715  0.9915871  0.9919435

 Al 
  0.4922095  0.2650141  0.2328449

 Al 
  0.7651589  0.9940993  0.2550208

 Al 
  0.7657418  0.2450498  0.0080800

 Al 
  0.9973912  0.5036322  0.9960844

 Al 
  0.9954198  0.7463405  0.2557967

 Al 
  0.2387110  0.5042523  0.2618026

 Al 
  0.2280197  0.7482414  0.9898718

 Al 
  0.0211982  0.0043822  0.5064663

 Al 
  0.0084773  0.2381615  0.7591171

 Al 
  0.2612408  0.9908829  0.7470336

 Al 
  0.2695386  0.2348399  0.5118076

 Al 
  0.9613732  0.5122284  0.5053822

 Al 
  0.0167739  0.7571717  0.7475199

 Al 
  0.2407542  0.4972600  0.7644795

 Al 
  0.2331394  0.7573400  0.4818685

 Al 
  0.4980818  0.5170883  0.0125328

 Al 
  0.5023563  0.7639820  0.2520346

 Al 
  0.7514121  0.5087533  0.2360675

 Al 
  0.7699062  0.7681996  0.9831654

 Al 
  0.4928358  0.9950423  0.4912628

 Al 
  0.5097409  0.2356690  0.7524764

 Al 
  0.7541335  0.9955819  0.7408643

 Al 
  0.7441129  0.2493515  0.4855539

 Al 
  0.4796371  0.4916477  0.5032882

 Al 
  0.4816346  0.7459148  0.7532016

 Al 
  0.7436167  0.4965583  0.7578028

 Al 
  0.7293265  0.7494975  0.5125464

