32 
charge = 0 
 Al 
  0.0189656  0.9921786  0.9896602

 Al 
  0.0259740  0.2488751  0.2725632

 Al 
  0.2562497  0.0029714  0.2389523

 Al 
  0.2503812  0.2481090  0.0024033

 Al 
  0.4961388  0.9918222  0.9922491

 Al 
  0.4923246  0.2655920  0.2325986

 Al 
  0.7645191  0.9942379  0.2548451

 Al 
  0.7659905  0.2452638  0.0078845

 Al 
  0.9976053  0.5033154  0.9965026

 Al 
  0.9961425  0.7452700  0.2557609

 Al 
  0.2386652  0.5047498  0.2614363

 Al 
  0.2280432  0.7483281  0.9903272

 Al 
  0.0216177  0.0043686  0.5061878

 Al 
  0.0083201  0.2380835  0.7583350

 Al 
  0.2613051  0.9908519  0.7463319

 Al 
  0.2696921  0.2349624  0.5121566

 Al 
  0.9614648  0.5124932  0.5053970

 Al 
  0.0165771  0.7568375  0.7474184

 Al 
  0.2408742  0.4966908  0.7649238

 Al 
  0.2332496  0.7569539  0.4816519

 Al 
  0.4981536  0.5175932  0.0126825

 Al 
  0.5025420  0.7637555  0.2521670

 Al 
  0.7512846  0.5092929  0.2363336

 Al 
  0.7699520  0.7678457  0.9831753

 Al 
  0.4929372  0.9953468  0.4907777

 Al 
  0.5093708  0.2357742  0.7528340

 Al 
  0.7543055  0.9957552  0.7416724

 Al 
  0.7443815  0.2492080  0.4856628

 Al 
  0.4783538  0.4917974  0.5035085

 Al 
  0.4814626  0.7459965  0.7529776

 Al 
  0.7435548  0.4964977  0.7579959

 Al 
  0.7296025  0.7491807  0.5126256

