32 
charge = 0 
 Al 
  0.0206710  0.9880971  0.0005977

 Al 
  0.0195584  0.2465781  0.2790010

 Al 
  0.2602087  0.0047720  0.2389746

 Al 
  0.2491473  0.2563796  0.9923234

 Al 
  0.5007673  0.9889956  0.9886540

 Al 
  0.4916452  0.2560517  0.2372667

 Al 
  0.7728070  0.9932540  0.2568511

 Al 
  0.7619091  0.2415375  0.0103720

 Al 
  0.9945201  0.5070541  0.9916539

 Al 
  0.9862309  0.7607123  0.2556755

 Al 
  0.2396218  0.4982130  0.2659212

 Al 
  0.2312150  0.7463492  0.9872011

 Al 
  0.0133483  0.0044478  0.5092335

 Al 
  0.0098733  0.2401676  0.7679125

 Al 
  0.2602445  0.9924311  0.7563425

 Al 
  0.2658792  0.2347260  0.5069081

 Al 
  0.9634733  0.5080268  0.5052621

 Al 
  0.0166935  0.7605527  0.7470769

 Al 
  0.2398805  0.5039144  0.7563264

 Al 
  0.2339191  0.7607544  0.4860576

 Al 
  0.4965621  0.5101146  0.0092508

 Al 
  0.4996114  0.7655203  0.2496943

 Al 
  0.7524974  0.5017115  0.2334167

 Al 
  0.7672677  0.7717328  0.9839674

 Al 
  0.4926241  0.9911378  0.4979766

 Al 
  0.5146032  0.2355267  0.7484667

 Al 
  0.7518081  0.9941005  0.7307485

 Al 
  0.7407269  0.2509740  0.4848386

 Al 
  0.4971957  0.4910636  0.5005544

 Al 
  0.4852062  0.7443295  0.7553772

 Al 
  0.7437033  0.4972947  0.7555369

 Al 
  0.7265828  0.7534788  0.5105614

