32 
charge = 0 
 Al 
  0.0206760  0.9884028  0.9987006

 Al 
  0.0208109  0.2468900  0.2782276

 Al 
  0.2596319  0.0045852  0.2389053

 Al 
  0.2492476  0.2550406  0.9938852

 Al 
  0.4998540  0.9893545  0.9891119

 Al 
  0.4916229  0.2577261  0.2363930

 Al 
  0.7716734  0.9932318  0.2565925

 Al 
  0.7626231  0.2422256  0.0100243

 Al 
  0.9950126  0.5065603  0.9922603

 Al 
  0.9876764  0.7583288  0.2557324

 Al 
  0.2394411  0.4991572  0.2652975

 Al 
  0.2302497  0.7467662  0.9872185

 Al 
  0.0149386  0.0044540  0.5088486

 Al 
  0.0097508  0.2397258  0.7666205

 Al 
  0.2604277  0.9920177  0.7547894

 Al 
  0.2666663  0.2345614  0.5077434

 Al 
  0.9627320  0.5087991  0.5052869

 Al 
  0.0170586  0.7600824  0.7473640

 Al 
  0.2399399  0.5028959  0.7580145

 Al 
  0.2335318  0.7603745  0.4852148

 Al 
  0.4968826  0.5113522  0.0099463

 Al 
  0.5001040  0.7654460  0.2501621

 Al 
  0.7523835  0.5028971  0.2337632

 Al 
  0.7679694  0.7712638  0.9837409

 Al 
  0.4925437  0.9917776  0.4968034

 Al 
  0.5137963  0.2354042  0.7490644

 Al 
  0.7521954  0.9942453  0.7323647

 Al 
  0.7412739  0.2507413  0.4848782

 Al 
  0.4941686  0.4910091  0.5010173

 Al 
  0.4844414  0.7446500  0.7551124

 Al 
  0.7437664  0.4971771  0.7558834

 Al 
  0.7269108  0.7528600  0.5110304

