32 
charge = 0 
 Al 
  0.0205794  0.9888434  0.9968380

 Al 
  0.0219878  0.2472279  0.2773464

 Al 
  0.2590293  0.0043587  0.2388570

 Al 
  0.2493924  0.2536978  0.9954928

 Al 
  0.4990000  0.9897555  0.9896193

 Al 
  0.4916514  0.2593597  0.2355552

 Al 
  0.7704359  0.9932924  0.2563103

 Al 
  0.7633211  0.2428840  0.0096530

 Al 
  0.9955089  0.5060269  0.9929348

 Al 
  0.9892085  0.7558660  0.2557868

 Al 
  0.2392679  0.5001485  0.2646391

 Al 
  0.2294416  0.7471487  0.9874202

 Al 
  0.0164497  0.0044515  0.5084315

 Al 
  0.0095688  0.2393161  0.7652257

 Al 
  0.2606059  0.9916625  0.7531979

 Al 
  0.2674051  0.2344711  0.5085949

 Al 
  0.9621343  0.5095626  0.5053067

 Al 
  0.0172788  0.7595713  0.7475731

 Al 
  0.2400364  0.5018167  0.7595911

 Al 
  0.2332397  0.7599116  0.4844080

 Al 
  0.4971845  0.5125773  0.0105985

 Al 
  0.5005953  0.7652913  0.2506089

 Al 
  0.7522400  0.5041013  0.2341555

 Al 
  0.7685733  0.7707366  0.9835429

 Al 
  0.4925028  0.9924373  0.4956277

 Al 
  0.5129684  0.2353386  0.7497030

 Al 
  0.7525939  0.9944396  0.7340515

 Al 
  0.7418420  0.2504864  0.4849500

 Al 
  0.4911168  0.4910116  0.5014801

 Al 
  0.4837322  0.7449557  0.7547993

 Al 
  0.7438035  0.4970546  0.7562522

 Al 
  0.7273068  0.7522004  0.5114450

