32 
charge = 0 
 Al 
  0.0191104  0.9888124  0.0103312

 Al 
  0.0120860  0.2455076  0.2809242

 Al 
  0.2625798  0.0050802  0.2396206

 Al 
  0.2496213  0.2630278  0.9856158

 Al 
  0.5062596  0.9880885  0.9872754

 Al 
  0.4926328  0.2471289  0.2420672

 Al 
  0.7758985  0.9952787  0.2578536

 Al 
  0.7580887  0.2375885  0.0116071

 Al 
  0.9921378  0.5089575  0.9896626

 Al 
  0.9810084  0.7704210  0.2556519

 Al 
  0.2406465  0.4942206  0.2685337

 Al 
  0.2383335  0.7437850  0.9900079

 Al 
  0.0044837  0.0042894  0.5108324

 Al 
  0.0092186  0.2428184  0.7725670

 Al 
  0.2591703  0.9954309  0.7633657

 Al 
  0.2613373  0.2367729  0.5032845

 Al 
  0.9693468  0.5041273  0.5050369

 Al 
  0.0124932  0.7623793  0.7447008

 Al 
  0.2401354  0.5079934  0.7459940

 Al 
  0.2372321  0.7614945  0.4906762

 Al 
  0.4947899  0.5035221  0.0052064

 Al 
  0.4972613  0.7645055  0.2469952

 Al 
  0.7526125  0.4961574  0.2324353

 Al 
  0.7622098  0.7730496  0.9854215

 Al 
  0.4934397  0.9883756  0.5037226

 Al 
  0.5181266  0.2371095  0.7461339

 Al 
  0.7501386  0.9942515  0.7241696

 Al 
  0.7384944  0.2516373  0.4851938

 Al 
  0.5116776  0.4922145  0.4979914

 Al 
  0.4899337  0.7425721  0.7558264

 Al 
  0.7431637  0.4978046  0.7541755

 Al 
  0.7263341  0.7555987  0.5071185

