32 
charge = 0 
 Al 
  0.0174892  0.9907121  0.0145946

 Al 
  0.0079068  0.2454173  0.2802881

 Al 
  0.2632246  0.0047980  0.2401131

 Al 
  0.2506324  0.2660066  0.9835293

 Al 
  0.5093003  0.9884511  0.9873261

 Al 
  0.4937577  0.2427330  0.2445052

 Al 
  0.7747859  0.9978504  0.2581506

 Al 
  0.7561965  0.2354970  0.0116875

 Al 
  0.9911638  0.5095800  0.9894424

 Al 
  0.9804317  0.7725571  0.2560356

 Al 
  0.2412603  0.4929088  0.2693629

 Al 
  0.2428358  0.7423420  0.9931241

 Al 
  0.0001535  0.0041879  0.5114574

 Al 
  0.0078016  0.2442540  0.7733132

 Al 
  0.2584526  0.9974073  0.7660004

 Al 
  0.2589253  0.2384845  0.5022029

 Al 
  0.9733949  0.5023576  0.5048698

 Al 
  0.0090342  0.7629214  0.7433469

 Al 
  0.2406007  0.5091864  0.7399386

 Al 
  0.2395599  0.7611851  0.4929929

 Al 
  0.4940139  0.5001040  0.0030407

 Al 
  0.4964012  0.7629820  0.2455188

 Al 
  0.7523625  0.4939669  0.2324811

 Al 
  0.7589340  0.7728083  0.9863101

 Al 
  0.4938939  0.9875415  0.5061928

 Al 
  0.5192255  0.2385303  0.7455250

 Al 
  0.7495755  0.9950002  0.7225162

 Al 
  0.7379944  0.2515123  0.4858225

 Al 
  0.5176192  0.4933345  0.4964692

 Al 
  0.4926897  0.7417219  0.7553883

 Al 
  0.7429830  0.4979704  0.7538364

 Al 
  0.7273996  0.7556915  0.5046173

