32 
charge = 0 
 Al 
  0.0168531  0.9915598  0.0158445

 Al 
  0.0064947  0.2454619  0.2798166

 Al 
  0.2633384  0.0046446  0.2403025

 Al 
  0.2510853  0.2669187  0.9830565

 Al 
  0.5103089  0.9887171  0.9874585

 Al 
  0.4942280  0.2413135  0.2453047

 Al 
  0.7739394  0.9989283  0.2582224

 Al 
  0.7555839  0.2348151  0.0116096

 Al 
  0.9908866  0.5097607  0.9894832

 Al 
  0.9805752  0.7727687  0.2562386

 Al 
  0.2414905  0.4925796  0.2695547

 Al 
  0.2443938  0.7418581  0.9943617

 Al 
  0.9988107  0.0041656  0.5116393

 Al 
  0.0071469  0.2447305  0.7733021

 Al 
  0.2581741  0.9981140  0.7667306

 Al 
  0.2581172  0.2391293  0.5019801

 Al 
  0.9748626  0.5018031  0.5048104

 Al 
  0.0077249  0.7630451  0.7429397

 Al 
  0.2408037  0.5094599  0.7378323

 Al 
  0.2404015  0.7610081  0.4937491

 Al 
  0.4938085  0.4989518  0.0023167

 Al 
  0.4961908  0.7623187  0.2450176

 Al 
  0.7522375  0.4933531  0.2325689

 Al 
  0.7577818  0.7725670  0.9866368

 Al 
  0.4940226  0.9873694  0.5069303

 Al 
  0.5194594  0.2390971  0.7454074

 Al 
  0.7494245  0.9953505  0.7222650

 Al 
  0.7379499  0.2513960  0.4861195

 Al 
  0.5193344  0.4937812  0.4959148

 Al 
  0.4936426  0.7414571  0.7551421

 Al 
  0.7429706  0.4980100  0.7537770

 Al 
  0.7279565  0.7555641  0.5036632

