32 
charge = 0 
 Al 
  0.0171774  0.9911230  0.0152307

 Al 
  0.0072026  0.2454346  0.2800691

 Al 
  0.2632877  0.0047250  0.2402059

 Al 
  0.2508514  0.2664670  0.9832793

 Al 
  0.5098052  0.9885748  0.9873855

 Al 
  0.4939867  0.2420214  0.2449050

 Al 
  0.7743936  0.9983763  0.2581877

 Al 
  0.7558896  0.2351554  0.0116554

 Al 
  0.9910227  0.5096716  0.9894560

 Al 
  0.9804836  0.7726932  0.2561321

 Al 
  0.2413730  0.4927380  0.2694644

 Al 
  0.2436117  0.7420994  0.9937305

 Al 
  0.9994765  0.0041755  0.5115502

 Al 
  0.0074860  0.2444916  0.7733231

 Al 
  0.2583164  0.9977575  0.7663742

 Al 
  0.2585219  0.2388025  0.5020841

 Al 
  0.9741213  0.5020791  0.5048401

 Al 
  0.0083894  0.7629870  0.7431402

 Al 
  0.2406985  0.5093300  0.7388916

 Al 
  0.2399770  0.7610997  0.4933716

 Al 
  0.4939075  0.4995297  0.0026793

 Al 
  0.4962910  0.7626603  0.2452700

 Al 
  0.7523031  0.4936525  0.2325207

 Al 
  0.7583610  0.7726981  0.9864710

 Al 
  0.4939595  0.9874486  0.5065665

 Al 
  0.5193505  0.2388062  0.7454619

 Al 
  0.7494975  0.9951698  0.7223714

 Al 
  0.7379647  0.2514591  0.4859648

 Al 
  0.5184917  0.4935535  0.4961957

 Al 
  0.4931637  0.7415883  0.7552708

 Al 
  0.7429731  0.4979914  0.7538030

 Al 
  0.7276645  0.7556383  0.5041483

