32 
charge = 0 
 Al 
  0.0161688  0.9925140  0.0170115

 Al 
  0.0050678  0.2455448  0.2792102

 Al 
  0.2634003  0.0044639  0.2405079

 Al 
  0.2515927  0.2677949  0.9826902

 Al 
  0.5113138  0.9890612  0.9876491

 Al 
  0.4947490  0.2399077  0.2461042

 Al 
  0.7728466  0.0001064  0.2582830

 Al 
  0.7549750  0.2341456  0.0114734

 Al 
  0.9906341  0.5099352  0.9895785

 Al 
  0.9808759  0.7727365  0.2564811

 Al 
  0.2417405  0.4922986  0.2697045

 Al 
  0.2459816  0.7413730  0.9956908

 Al 
  0.9975199  0.0041557  0.5118076

 Al 
  0.0063970  0.2452069  0.7731647

 Al 
  0.2578709  0.9988441  0.7673989

 Al 
  0.2573016  0.2398087  0.5018242

 Al 
  0.9763947  0.5012611  0.5047510

 Al 
  0.0063351  0.7631429  0.7425635

 Al 
  0.2410326  0.5096827  0.7356727

 Al 
  0.2412789  0.7608014  0.4945052

 Al 
  0.4936365  0.4977798  0.0015866

 Al 
  0.4960212  0.7615724  0.2445102

 Al 
  0.7520902  0.4927912  0.2326902

 Al 
  0.7566012  0.7722415  0.9869883

 Al 
  0.4941377  0.9872519  0.5076296

 Al 
  0.5196265  0.2397159  0.7453282

 Al 
  0.7492872  0.9957502  0.7221672

 Al 
  0.7379684  0.2512413  0.4864685

 Al 
  0.5209272  0.4942639  0.4953294

 Al 
  0.4946178  0.7412022  0.7548463

 Al 
  0.7429892  0.4980422  0.7537424

 Al 
  0.7286211  0.7553624  0.5026422

