32 
charge = 0 
 Al 
  0.0115737  0.9994023  0.0218516

 Al 
  0.9971957  0.2467106  0.2734753

 Al 
  0.2627494  0.0030221  0.2420251

 Al 
  0.2550876  0.2718318  0.9824563

 Al 
  0.5163655  0.9923605  0.9896725

 Al 
  0.4984332  0.2325281  0.2505309

 Al 
  0.7627382  0.0075677  0.2584835

 Al 
  0.7517202  0.2309774  0.0095651

 Al 
  0.9897109  0.5109017  0.9910772

 Al 
  0.9848634  0.7686092  0.2583969

 Al 
  0.2435647  0.4915239  0.2696871

 Al 
  0.2549304  0.7388161  0.0042300

 Al 
  0.9916366  0.0044169  0.5123261

 Al 
  0.0006250  0.2478281  0.7702168

 Al 
  0.2557633  0.0031484  0.7700250

 Al 
  0.2526335  0.2438864  0.5021472

 Al 
  0.9856789  0.4984110  0.5043797

 Al 
  0.9975063  0.7631503  0.7413024

 Al 
  0.2428902  0.5100527  0.7231140

 Al 
  0.2466289  0.7594179  0.4986412

 Al 
  0.4935808  0.4910029  0.9974605

 Al 
  0.4959631  0.7560542  0.2417009

 Al 
  0.7509331  0.4906663  0.2338622

 Al 
  0.7499790  0.7687837  0.9894894

 Al 
  0.4944545  0.9875600  0.5107680

 Al 
  0.5191736  0.2441030  0.7454210

 Al 
  0.7486585  0.9986956  0.7244307

 Al 
  0.7392518  0.2498354  0.4895154

 Al 
  0.5274033  0.4974370  0.4915945

 Al 
  0.5002921  0.7400376  0.7523588

 Al 
  0.7437899  0.4981226  0.7538921

 Al 
  0.7342236  0.7531385  0.4959049

