32 
charge = 0 
 Al 
  0.0106282  0.0008354  0.0224098

 Al 
  0.9958703  0.2470459  0.2720521

 Al 
  0.2624536  0.0027004  0.2423754

 Al 
  0.2557411  0.2723566  0.9827199

 Al 
  0.5170821  0.9931761  0.9901799

 Al 
  0.4991906  0.2313524  0.2513007

 Al 
  0.7603386  0.0088622  0.2585082

 Al 
  0.7511806  0.2305864  0.0090057

 Al 
  0.9896515  0.5110774  0.9915128

 Al 
  0.9858844  0.7672850  0.2587941

 Al 
  0.2439768  0.4915153  0.2695114

 Al 
  0.2564725  0.7384152  0.0058549

 Al 
  0.9908816  0.0045369  0.5123150

 Al 
  0.9993577  0.2482823  0.7693344

 Al 
  0.2553228  0.0039206  0.7702948

 Al 
  0.2517908  0.2445943  0.5024095

 Al 
  0.9873806  0.4979370  0.5042993

 Al 
  0.9958059  0.7630427  0.7412517

 Al 
  0.2433493  0.5099772  0.7208851

 Al 
  0.2476363  0.7591852  0.4993540

 Al 
  0.4937874  0.4897963  0.9967390

 Al 
  0.4961413  0.7548574  0.2412442

 Al 
  0.7506732  0.4904695  0.2341443

 Al 
  0.7488689  0.7678716  0.9900537

 Al 
  0.4944520  0.9877803  0.5111839

 Al 
  0.5188258  0.2450337  0.7454977

 Al 
  0.7485533  0.9993094  0.7253280

 Al 
  0.7396874  0.2495273  0.4902802

 Al 
  0.5280976  0.4980508  0.4908680

 Al 
  0.5013143  0.7398891  0.7517809

 Al 
  0.7440721  0.4981288  0.7539491

 Al 
  0.7355329  0.7526051  0.4945659

