32 
charge = 0 
 Al 
  0.0142443  0.9953443  0.0195597

 Al 
  0.0014529  0.2459259  0.2770977

 Al 
  0.2633162  0.0038958  0.2411106

 Al 
  0.2530778  0.2698220  0.9822138

 Al 
  0.5137617  0.9902740  0.9883756

 Al 
  0.4962700  0.2364437  0.2481226

 Al 
  0.7690535  0.0034021  0.2583956

 Al 
  0.7534639  0.2325541  0.0108584

 Al 
  0.9901057  0.5103683  0.9900587

 Al 
  0.9822558  0.7716351  0.2572509

 Al 
  0.2424694  0.4917900  0.2698852

 Al 
  0.2500532  0.7401676  0.9993738

 Al 
  0.9945461  0.0041978  0.5121442

 Al 
  0.0040939  0.2464049  0.7722699

 Al 
  0.2570009  0.0007636  0.7688159

 Al 
  0.2552077  0.2416304  0.5017227

 Al 
  0.9804861  0.4999344  0.5045938

 Al 
  0.0025296  0.7632642  0.7417999

 Al 
  0.2417417  0.5100243  0.7300443

 Al 
  0.2436204  0.7601938  0.4963987

 Al 
  0.4933939  0.4947453  0.9997178

 Al 
  0.4957935  0.7593424  0.2432144

 Al 
  0.7516323  0.4916168  0.2331271

 Al 
  0.7535667  0.7710225  0.9879956

 Al 
  0.4943530  0.9871925  0.5092149

 Al 
  0.5197218  0.2415140  0.7452762

 Al 
  0.7489827  0.9969556  0.7226053

 Al 
  0.7383026  0.2507005  0.4876033

 Al 
  0.5243812  0.4956203  0.4937256

 Al 
  0.4971536  0.7406131  0.7538872

 Al 
  0.7431946  0.4980942  0.7537523

 Al 
  0.7307720  0.7545530  0.4997859

