32 
charge = 0 
 Al 
  0.0059391  0.0075850  0.0236189

 Al 
  0.9906044  0.2490755  0.2642443

 Al 
  0.2603658  0.0011249  0.2444495

 Al 
  0.2581196  0.2735471  0.9850304

 Al 
  0.5189644  0.9975632  0.9928085

 Al 
  0.5026286  0.2272251  0.2546458

 Al 
  0.7480261  0.0133669  0.2587186

 Al 
  0.7489889  0.2300493  0.0055492

 Al 
  0.9900116  0.5118311  0.9941364

 Al 
  0.9913123  0.7596072  0.2604871

 Al 
  0.2462267  0.4919410  0.2679261

 Al 
  0.2627147  0.7369462  0.0128298

 Al 
  0.9889832  0.0054304  0.5115861

 Al 
  0.9930672  0.2502388  0.7641404

 Al 
  0.2531174  0.0071865  0.7706809

 Al 
  0.2480447  0.2471548  0.5041669

 Al 
  0.9945733  0.4960138  0.5036904

 Al 
  0.9881343  0.7620118  0.7418395

 Al 
  0.2461933  0.5091097  0.7118670

 Al 
  0.2521868  0.7585194  0.5022759

 Al 
  0.4960262  0.4848844  0.9937577

 Al 
  0.4979729  0.7487488  0.2397889

 Al 
  0.7492661  0.4903656  0.2356591

 Al 
  0.7445646  0.7625489  0.9932083

 Al 
  0.4943134  0.9894461  0.5123843

 Al 
  0.5160450  0.2495805  0.7458591

 Al 
  0.7479531  0.0022264  0.7312918

 Al 
  0.7424335  0.2481981  0.4947168

 Al 
  0.5291335  0.5007772  0.4875043

 Al 
  0.5057621  0.7395475  0.7487538

 Al 
  0.7459272  0.4982031  0.7540617

 Al 
  0.7423977  0.7499468  0.4883224

