32 
charge = 0 
 Al 
  0.0082459  0.0043624  0.0233330

 Al 
  0.9929236  0.2480026  0.2682206

 Al 
  0.2615205  0.0018848  0.2433456

 Al 
  0.2571630  0.2732625  0.9837013

 Al 
  0.5184026  0.9953468  0.9915078

 Al 
  0.5010284  0.2288798  0.2530877

 Al 
  0.7541124  0.0115898  0.2585862

 Al 
  0.7499728  0.2300022  0.0073870

 Al 
  0.9896862  0.5114871  0.9927541

 Al 
  0.9885785  0.7635748  0.2597297

 Al 
  0.2450757  0.4916403  0.2688506

 Al 
  0.2599451  0.7375662  0.0096542

 Al 
  0.9895438  0.0049267  0.5120984

 Al 
  0.9961425  0.2493317  0.7668469

 Al 
  0.2542102  0.0057015  0.7706760

 Al 
  0.2498020  0.2461141  0.5032387

 Al 
  0.9913135  0.4968702  0.5040518

 Al 
  0.9917331  0.7626269  0.7413791

 Al 
  0.2446624  0.5096307  0.7158408

 Al 
  0.2500458  0.7587347  0.5009702

 Al 
  0.4946537  0.4870576  0.9950955

 Al 
  0.4968653  0.7517870  0.2403161

 Al 
  0.7499839  0.4902455  0.2348906

 Al 
  0.7464309  0.7653309  0.9915710

 Al 
  0.4943901  0.9885092  0.5119648

 Al 
  0.5176291  0.2473714  0.7456995

 Al 
  0.7482748  0.0008230  0.7280642

 Al 
  0.7409707  0.2487946  0.4924026

 Al 
  0.5291050  0.4995087  0.4891070

 Al 
  0.5037028  0.7396329  0.7502698

 Al 
  0.7449248  0.4981548  0.7540567

 Al 
  0.7389622  0.7512425  0.4913012

