32 
charge = 0 
 Al 
  0.0087186  0.0036743  0.0232018

 Al 
  0.9934644  0.2477996  0.2690065

 Al 
  0.2617271  0.0020469  0.2431414

 Al 
  0.2569105  0.2731300  0.9834736

 Al 
  0.5181971  0.9949037  0.9912405

 Al 
  0.5006745  0.2293129  0.2527486

 Al 
  0.7553624  0.0111145  0.2585676

 Al 
  0.7501968  0.2300703  0.0077323

 Al 
  0.9896565  0.5114091  0.9924917

 Al 
  0.9880315  0.7643483  0.2595540

 Al 
  0.2448505  0.4915994  0.2690065

 Al 
  0.2593028  0.7377172  0.0089364

 Al 
  0.9897480  0.0048389  0.5121652

 Al 
  0.9967811  0.2491337  0.7673680

 Al 
  0.2544317  0.0053673  0.7706314

 Al 
  0.2501832  0.2458455  0.5030593

 Al 
  0.9905747  0.4970682  0.5041075

 Al 
  0.9925165  0.7627271  0.7413247

 Al 
  0.2443815  0.5097149  0.7167739

 Al 
  0.2495817  0.7588065  0.5006695

 Al 
  0.4944396  0.4875650  0.9954025

 Al 
  0.4966883  0.7524033  0.2404720

 Al 
  0.7501250  0.4902604  0.2347384

 Al 
  0.7468752  0.7658631  0.9912566

 Al 
  0.4944062  0.9883459  0.5118385

 Al 
  0.5179026  0.2469098  0.7456599

 Al 
  0.7483330  0.0005272  0.7274702

 Al 
  0.7406960  0.2489332  0.4919596

 Al 
  0.5289850  0.4992302  0.4894498

 Al 
  0.5032486  0.7396701  0.7505742

 Al 
  0.7447391  0.4981486  0.7540419

 Al 
  0.7382691  0.7515135  0.4919360

