32 
charge = 0 
 Al 
  0.0096728  0.0022672  0.0228590

 Al 
  0.9946216  0.2474098  0.2705547

 Al 
  0.2621120  0.0023724  0.2427479

 Al 
  0.2563549  0.2727910  0.9830615

 Al 
  0.5176971  0.9940275  0.9907059

 Al 
  0.4999431  0.2302757  0.2520420

 Al 
  0.7578647  0.0100540  0.2585355

 Al 
  0.7506708  0.2302807  0.0083919

 Al 
  0.9896317  0.5112470  0.9919868

 Al 
  0.9869462  0.7658544  0.2591840

 Al 
  0.2444075  0.4915413  0.2692837

 Al 
  0.2579365  0.7380476  0.0074328

 Al 
  0.9902505  0.0046780  0.5122618

 Al 
  0.9980694  0.2487191  0.7683790

 Al 
  0.2548772  0.0046644  0.7704965

 Al 
  0.2509715  0.2452515  0.5027177

 Al 
  0.9890216  0.4974877  0.5042102

 Al 
  0.9941340  0.7629016  0.7412603

 Al 
  0.2438481  0.5098634  0.7187602

 Al 
  0.2486251  0.7589798  0.5000322

 Al 
  0.4940733  0.4886441  0.9960497

 Al 
  0.4963838  0.7536347  0.2408321

 Al 
  0.7504022  0.4903346  0.2344377

 Al 
  0.7478293  0.7668940  0.9906440

 Al 
  0.4944347  0.9880439  0.5115403

 Al 
  0.5184001  0.2459742  0.7455794

 Al 
  0.7484444  0.9999220  0.7263465

 Al 
  0.7401713  0.2492228  0.4910982

 Al 
  0.5286236  0.4986511  0.4901502

 Al 
  0.5023043  0.7397666  0.7511831

 Al 
  0.7443901  0.4981375  0.7539998

 Al 
  0.7368880  0.7520593  0.4932367

