32 
charge = 0 
 Al 
  0.0050468  0.0087558  0.0235731

 Al 
  0.9898520  0.2495285  0.2626528

 Al 
  0.2598535  0.0008490  0.2449309

 Al 
  0.2583511  0.2734914  0.9856381

 Al 
  0.5189718  0.9984357  0.9933060

 Al 
  0.5031706  0.2268155  0.2552089

 Al 
  0.7457094  0.0137877  0.2587954

 Al 
  0.7486511  0.2302572  0.0047733

 Al 
  0.9902257  0.5119437  0.9947168

 Al 
  0.9924014  0.7579971  0.2607247

 Al 
  0.2466957  0.4920969  0.2674942

 Al 
  0.2636169  0.7367568  0.0138929

 Al 
  0.9889523  0.0056594  0.5112928

 Al 
  0.9919088  0.2505656  0.7630253

 Al 
  0.2526855  0.0076915  0.7705943

 Al 
  0.2474073  0.2474209  0.5045295

 Al 
  0.9956710  0.4957304  0.5034986

 Al 
  0.9868509  0.7617135  0.7421068

 Al 
  0.2468714  0.5088622  0.7106170

 Al 
  0.2529578  0.7585008  0.5027028

 Al 
  0.4967167  0.4841901  0.9933159

 Al 
  0.4985199  0.7475608  0.2397060

 Al 
  0.7489741  0.4904943  0.2359636

 Al 
  0.7439755  0.7613868  0.9938963

 Al 
  0.4942973  0.9898706  0.5124598

 Al 
  0.5153148  0.2504121  0.7458975

 Al 
  0.7478083  0.0027462  0.7326778

 Al 
  0.7430548  0.2480088  0.4956747

 Al 
  0.5288983  0.5012215  0.4869165

 Al 
  0.5064923  0.7395587  0.7481585

 Al 
  0.7463579  0.4982315  0.7540258

 Al 
  0.7437404  0.7494629  0.4872296

