32 
charge = 0 
 Al 
  0.0015754  0.0127407  0.0225905

 Al 
  0.9876764  0.2515148  0.2562757

 Al 
  0.2574947  0.9999295  0.2471474

 Al 
  0.2583758  0.2723739  0.9885030

 Al 
  0.5177318  0.0017920  0.9952044

 Al 
  0.5046371  0.2267190  0.2572274

 Al 
  0.7372420  0.0138001  0.2592706

 Al 
  0.7475311  0.2322571  0.0015024

 Al 
  0.9916031  0.5122209  0.9971796

 Al 
  0.9968479  0.7514492  0.2612544

 Al 
  0.2486795  0.4928209  0.2654374

 Al 
  0.2661737  0.7362952  0.0169806

 Al 
  0.9897493  0.0067064  0.5095651

 Al 
  0.9877122  0.2517697  0.7583709

 Al 
  0.2508910  0.0092533  0.7698307

 Al 
  0.2451488  0.2476499  0.5057782

 Al 
  0.9989963  0.4948666  0.5023699

 Al 
  0.9825182  0.7602210  0.7436129

 Al 
  0.2500606  0.5076630  0.7075528

 Al 
  0.2556334  0.7588090  0.5039144

 Al 
  0.5003255  0.4823647  0.9920536

 Al 
  0.5013230  0.7429249  0.2401243

 Al 
  0.7477823  0.4913507  0.2371454

 Al 
  0.7423754  0.7564291  0.9969247

 Al 
  0.4944062  0.9918705  0.5123236

 Al 
  0.5117915  0.2534949  0.7458059

 Al 
  0.7471140  0.0045716  0.7386912

 Al 
  0.7457415  0.2475670  0.4996683

 Al 
  0.5266781  0.5026162  0.4848696

 Al 
  0.5089971  0.7398297  0.7458245

 Al 
  0.7482365  0.4984073  0.7536162

 Al 
  0.7489468  0.7477241  0.4833820

