32 
charge = 0 
 Al 
  0.9984580  0.0153433  0.0207106

 Al 
  0.9866640  0.2535939  0.2505074

 Al 
  0.2549205  0.9993676  0.2495891

 Al 
  0.2572076  0.2702713  0.9917529

 Al 
  0.5148322  0.0045629  0.9968702

 Al 
  0.5047795  0.2289305  0.2588560

 Al 
  0.7308896  0.0115724  0.2599228

 Al 
  0.7467365  0.2357532  0.9984332

 Al 
  0.9935956  0.5121269  0.9995582

 Al 
  0.0011658  0.7454136  0.2610824

 Al 
  0.2507005  0.4934273  0.2631615

 Al 
  0.2672578  0.7362692  0.0181897

 Al 
  0.9914658  0.0077533  0.5071902

 Al 
  0.9845936  0.2528551  0.7539070

 Al 
  0.2490793  0.0100824  0.7686662

 Al 
  0.2434422  0.2467687  0.5064093

 Al 
  0.0007326  0.4943629  0.5007722

 Al 
  0.9796025  0.7584909  0.7455052

 Al 
  0.2537028  0.5062980  0.7074019

 Al 
  0.2575788  0.7595589  0.5044082

 Al 
  0.5046495  0.4819279  0.9915734

 Al 
  0.5046161  0.7389127  0.2414992

 Al 
  0.7467254  0.4924212  0.2381615

 Al 
  0.7417727  0.7515383  0.0001188

 Al 
  0.4948431  0.9941216  0.5117309

 Al 
  0.5076939  0.2560418  0.7452440

 Al 
  0.7463319  0.0058376  0.7446587

 Al 
  0.7484419  0.2476313  0.5033934

 Al 
  0.5230818  0.5033191  0.4835082

 Al 
  0.5108509  0.7403582  0.7437614

 Al 
  0.7501225  0.4986931  0.7528130

 Al 
  0.7534652  0.7463950  0.4806445

