32 
charge = 0 
 Al 
  0.9998168  0.0143322  0.0216351

 Al 
  0.9870068  0.2526570  0.2530098

 Al 
  0.2560913  0.9995792  0.2484778

 Al 
  0.2578449  0.2712972  0.9902579

 Al 
  0.5162975  0.0033946  0.9961462

 Al 
  0.5048673  0.2276954  0.2581630

 Al 
  0.7334847  0.0127877  0.2596171

 Al 
  0.7470645  0.2340392  0.9997698

 Al 
  0.9926415  0.5122160  0.9985149

 Al 
  0.9992438  0.7480447  0.2612371

 Al 
  0.2497896  0.4931847  0.2641948

 Al 
  0.2669113  0.7362346  0.0178444

 Al 
  0.9906255  0.0072954  0.5083189

 Al 
  0.9858633  0.2523736  0.7558722

 Al 
  0.2498948  0.0097866  0.7692206

 Al 
  0.2441463  0.2472687  0.5062101

 Al 
  0.0001101  0.4945560  0.5015346

 Al 
  0.9807596  0.7592830  0.7446290

 Al 
  0.2520308  0.5069217  0.7071692

 Al 
  0.2567831  0.7591840  0.5042560

 Al 
  0.5026657  0.4819848  0.9917083

 Al 
  0.5031112  0.7406292  0.2407925

 Al 
  0.7471759  0.4919360  0.2377221

 Al 
  0.7419509  0.7537040  0.9986758

 Al 
  0.4946092  0.9930895  0.5120328

 Al 
  0.5095824  0.2549577  0.7455547

 Al 
  0.7466883  0.0053364  0.7420140

 Al 
  0.7472415  0.2475484  0.5017734

 Al 
  0.5248131  0.5030815  0.4840342

 Al 
  0.5100812  0.7400970  0.7446525

 Al 
  0.7492835  0.4985521  0.7532177

 Al 
  0.7515222  0.7469482  0.4817435

