32 
charge = 0 
 Al 
  0.9989147  0.0150252  0.0210386

 Al 
  0.9867643  0.2532734  0.2513452

 Al 
  0.2553228  0.9994332  0.2492080

 Al 
  0.2574415  0.2706339  0.9912368

 Al 
  0.5153594  0.0041780  0.9966264

 Al 
  0.5048339  0.2284689  0.2586258

 Al 
  0.7317323  0.0120204  0.2598176

 Al 
  0.7468442  0.2351455  0.9988812

 Al 
  0.9932602  0.5121652  0.9992067

 Al 
  0.0005124  0.7462972  0.2611480

 Al 
  0.2503886  0.4933506  0.2635154

 Al 
  0.2671613  0.7362494  0.0181043

 Al 
  0.9911688  0.0075999  0.5075850

 Al 
  0.9850045  0.2526905  0.7545703

 Al 
  0.2493577  0.0099946  0.7688592

 Al 
  0.2436723  0.2469556  0.5063561

 Al 
  0.0005445  0.4944235  0.5010396

 Al 
  0.9799725  0.7587632  0.7452020

 Al 
  0.2531273  0.5065121  0.7072732

 Al 
  0.2573202  0.7594253  0.5043674

 Al 
  0.5039689  0.4819254  0.9916069

 Al 
  0.5041000  0.7394832  0.2412442

 Al 
  0.7468739  0.4922566  0.2380130

 Al 
  0.7418185  0.7522709  0.9996250

 Al 
  0.4947564  0.9937652  0.5118398

 Al 
  0.5083461  0.2556816  0.7453604

 Al 
  0.7464544  0.0056779  0.7437627

 Al 
  0.7480348  0.2475942  0.5028513

 Al 
  0.5236894  0.5032511  0.4836728

 Al 
  0.5105985  0.7402653  0.7440597

 Al 
  0.7498379  0.4986424  0.7529590

 Al 
  0.7528167  0.7465769  0.4809972

