32 
charge = 0 
 Al 
  0.9979951  0.0156440  0.0203641

 Al 
  0.9865799  0.2539206  0.2496646

 Al 
  0.2545072  0.9993070  0.2499814

 Al 
  0.2569502  0.2698889  0.9922863

 Al 
  0.5142679  0.0049441  0.9971165

 Al 
  0.5046965  0.2294416  0.2590849

 Al 
  0.7300728  0.0110824  0.2600329

 Al 
  0.7466301  0.2363980  0.9979840

 Al 
  0.9939483  0.5120786  0.9999121

 Al 
  0.0018328  0.7445250  0.2610032

 Al 
  0.2510198  0.4934991  0.2627976

 Al 
  0.2673370  0.7362965  0.0182454

 Al 
  0.9917776  0.0079068  0.5067744

 Al 
  0.9841963  0.2530221  0.7532362

 Al 
  0.2487934  0.0101592  0.7684632

 Al 
  0.2432169  0.2465633  0.5064477

 Al 
  0.0009022  0.4943047  0.5004938

 Al 
  0.9792486  0.7582112  0.7458183

 Al 
  0.2542968  0.5060777  0.7075801

 Al 
  0.2578313  0.7596988  0.5044404

 Al 
  0.5053475  0.4819526  0.9915524

 Al 
  0.5051458  0.7383446  0.2417739

 Al 
  0.7465794  0.4925870  0.2383100

 Al 
  0.7417405  0.7507958  0.0006237

 Al 
  0.4949371  0.9944879  0.5116158

 Al 
  0.5070207  0.2564007  0.7451153

 Al 
  0.7462056  0.0059898  0.7455658

 Al 
  0.7488528  0.2476783  0.5039354

 Al 
  0.5224420  0.5033748  0.4833560

 Al 
  0.5111009  0.7404559  0.7434632

 Al 
  0.7504121  0.4987476  0.7526546

 Al 
  0.7541149  0.7462143  0.4803067

