32 
charge = 0 
 Al 
  0.9951599  0.0169818  0.0179137

 Al 
  0.9863868  0.2559960  0.2446686

 Al 
  0.2518217  0.9990681  0.2525048

 Al 
  0.2550047  0.2672553  0.9958368

 Al 
  0.5101517  0.0070999  0.9986412

 Al 
  0.5036496  0.2335095  0.2604215

 Al 
  0.7257958  0.0073610  0.2607284

 Al 
  0.7460212  0.2409472  0.9953233

 Al 
  0.9963987  0.5115675  0.0020110

 Al 
  0.0060579  0.7391948  0.2602161

 Al 
  0.2530803  0.4937874  0.2604487

 Al 
  0.2674521  0.7366294  0.0179348

 Al 
  0.9939025  0.0087793  0.5039057

 Al 
  0.9821853  0.2541062  0.7491498

 Al 
  0.2469556  0.0103856  0.7670796

 Al 
  0.2420004  0.2449792  0.5063277

 Al 
  0.0015432  0.4940263  0.4985954

 Al 
  0.9775184  0.7564044  0.7478578

 Al 
  0.2581407  0.5046495  0.7097136

 Al 
  0.2591840  0.7606554  0.5044515

 Al 
  0.5097594  0.4825405  0.9916823

 Al 
  0.5084785  0.7350874  0.2437775

 Al 
  0.7457923  0.4935696  0.2392481

 Al 
  0.7418110  0.7462502  0.0038389

 Al 
  0.4956722  0.9969073  0.5108064

 Al 
  0.5025902  0.2584847  0.7440634

 Al 
  0.7453827  0.0067014  0.7511720

 Al 
  0.7513601  0.2481573  0.5071036

 Al 
  0.5180721  0.5034342  0.4827632

 Al 
  0.5125254  0.7411502  0.7416947

 Al 
  0.7522016  0.4991560  0.7514566

 Al 
  0.7579439  0.7451785  0.4786607

