32 
charge = 0 
 Al 
  0.9946847  0.0171204  0.0174558

 Al 
  0.9864066  0.2563499  0.2438704

 Al 
  0.2513489  0.9990508  0.2529417

 Al 
  0.2546272  0.2667739  0.9964717

 Al 
  0.5093646  0.0074291  0.9988998

 Al 
  0.5033922  0.2343337  0.2606319

 Al 
  0.7252054  0.0066383  0.2608435

 Al 
  0.7459247  0.2417950  0.9949025

 Al 
  0.9968529  0.5114437  0.0023427

 Al 
  0.0067843  0.7383335  0.2600366

 Al 
  0.2534404  0.4938072  0.2600391

 Al 
  0.2674162  0.7367123  0.0177776

 Al 
  0.9942837  0.0089080  0.5033748

 Al 
  0.9819279  0.2542981  0.7484803

 Al 
  0.2466363  0.0103831  0.7668259

 Al 
  0.2418247  0.2446711  0.5062460

 Al 
  0.0015940  0.4939904  0.4982538

 Al 
  0.9773043  0.7560913  0.7482154

 Al 
  0.2588053  0.5044008  0.7102371

 Al 
  0.2593758  0.7608237  0.5044268

 Al 
  0.5104958  0.4827075  0.9917442

 Al 
  0.5090354  0.7345886  0.2441587

 Al 
  0.7456859  0.4937194  0.2394139

 Al 
  0.7418680  0.7455039  0.0043872

 Al 
  0.4958195  0.9973380  0.5106579

 Al 
  0.5018081  0.2588127  0.7438444

 Al 
  0.7452379  0.0067818  0.7521076

 Al 
  0.7517660  0.2482674  0.5075937

 Al 
  0.5172776  0.5033959  0.4827273

 Al 
  0.5127481  0.7412801  0.7414126

 Al 
  0.7524999  0.4992364  0.7512153

 Al 
  0.7585565  0.7450151  0.4784615

