32 
charge = 0 
 Al 
  0.9942132  0.0172331  0.0169880

 Al 
  0.9864400  0.2567026  0.2430907

 Al 
  0.2508750  0.9990397  0.2533785

 Al 
  0.2542399  0.2662876  0.9971152

 Al 
  0.5085553  0.0077459  0.9991572

 Al 
  0.5031137  0.2351901  0.2608349

 Al 
  0.7246572  0.0058982  0.2609561

 Al 
  0.7458294  0.2426600  0.9944916

 Al 
  0.9973182  0.5113088  0.0026657

 Al 
  0.0075108  0.7374882  0.2598436

 Al 
  0.2538018  0.4938171  0.2596282

 Al 
  0.2673680  0.7368014  0.0175895

 Al 
  0.9946673  0.0090293  0.5028340

 Al 
  0.9816977  0.2544924  0.7478207

 Al 
  0.2463145  0.0103683  0.7665685

 Al 
  0.2416588  0.2443555  0.5061457

 Al 
  0.0016311  0.4939582  0.4979073

 Al 
  0.9771138  0.7557794  0.7485731

 Al 
  0.2594698  0.5041533  0.7108039

 Al 
  0.2595577  0.7609908  0.5043958

 Al 
  0.5112222  0.4828932  0.9918172

 Al 
  0.5095837  0.7341085  0.2445510

 Al 
  0.7455881  0.4938617  0.2395834

 Al 
  0.7419360  0.7447688  0.0049342

 Al 
  0.4959730  0.9977736  0.5105081

 Al 
  0.5010210  0.2591307  0.7436142

 Al 
  0.7450918  0.0068499  0.7530345

 Al 
  0.7521620  0.2483837  0.5080652

 Al 
  0.5164757  0.5033439  0.4827113

 Al 
  0.5129647  0.7414138  0.7411366

 Al 
  0.7527944  0.4993218  0.7509653

 Al 
  0.7591555  0.7448555  0.4782870

