32 
charge = 0 
 Al 
  0.9891367  0.0165945  0.0112408

 Al 
  0.9876863  0.2603250  0.2359821

 Al 
  0.2454730  0.9993342  0.2579315

 Al 
  0.2494901  0.2605378  0.0045716

 Al 
  0.4983033  0.0105762  0.0021076

 Al 
  0.4990161  0.2464012  0.2624920

 Al 
  0.7213306  0.9970558  0.2617705

 Al 
  0.7449025  0.2530407  0.9908173

 Al 
  0.0030902  0.5090255  0.0052807

 Al 
  0.0155203  0.7294812  0.2568623

 Al 
  0.2578659  0.4933283  0.2549379

 Al 
  0.2661143  0.7382877  0.0135587

 Al 
  0.9987092  0.0096555  0.4961871

 Al 
  0.9813920  0.2567323  0.7414979

 Al 
  0.2426761  0.0094339  0.7633892

 Al 
  0.2404968  0.2407554  0.5037770

 Al 
  0.0015432  0.4937949  0.4939966

 Al 
  0.9768093  0.7524429  0.7525296

 Al 
  0.2662789  0.5015618  0.7200213

 Al 
  0.2607977  0.7624387  0.5037919

 Al 
  0.5178382  0.4861789  0.9932058

 Al 
  0.5145748  0.7303240  0.2493651

 Al 
  0.7454334  0.4946178  0.2419645

 Al 
  0.7435981  0.7377939  0.0106183

 Al 
  0.4980137  0.0029021  0.5089154

 Al 
  0.4922368  0.2618633  0.7404646

 Al 
  0.7433184  0.0067311  0.7625885

 Al 
  0.7555220  0.2500124  0.5116034

 Al 
  0.5072125  0.5018106  0.4842112

 Al 
  0.5150426  0.7431588  0.7386181

 Al 
  0.7556371  0.5005210  0.7474209

 Al 
  0.7649411  0.7432825  0.4782820

