32 
charge = 0 
 Al 
  0.9898891  0.0169373  0.0121727

 Al 
  0.9873942  0.2598324  0.2368398

 Al 
  0.2462985  0.9992414  0.2573128

 Al 
  0.2502450  0.2614512  0.0034157

 Al 
  0.5000074  0.0102247  0.0016361

 Al 
  0.4997253  0.2445399  0.2623360

 Al 
  0.7214853  0.9984110  0.2617234

 Al 
  0.7450262  0.2513997  0.9912566

 Al 
  0.0021373  0.5094773  0.0050381

 Al 
  0.0143174  0.7304960  0.2574204

 Al 
  0.2572509  0.4934719  0.2556668

 Al 
  0.2663754  0.7379969  0.0144151

 Al 
  0.9981647  0.0096740  0.4972675

 Al 
  0.9811123  0.2563871  0.7423036

 Al 
  0.2432392  0.0096740  0.7639176

 Al 
  0.2405883  0.2412690  0.5042943

 Al 
  0.0015742  0.4937986  0.4945857

 Al 
  0.9766064  0.7529194  0.7519405

 Al 
  0.2653693  0.5019145  0.7182491

 Al 
  0.2607086  0.7623038  0.5038971

 Al 
  0.5170846  0.4855230  0.9929385

 Al 
  0.5140129  0.7306792  0.2485892

 Al 
  0.7453146  0.4946364  0.2415054

 Al 
  0.7432194  0.7386701  0.0098262

 Al 
  0.4976610  0.0020865  0.5091320

 Al 
  0.4935473  0.2615724  0.7410004

 Al 
  0.7436142  0.0068598  0.7612482

 Al 
  0.7551841  0.2497389  0.5113237

 Al 
  0.5086357  0.5021608  0.4837483

 Al 
  0.5147641  0.7428494  0.7389226

 Al 
  0.7552757  0.5003032  0.7480595

 Al 
  0.7641664  0.7434978  0.4780184

