32 
charge = 0 
 Al 
  0.9877246  0.0156515  0.0094240

 Al 
  0.9883372  0.2611529  0.2346431

 Al 
  0.2439248  0.9995532  0.2589637

 Al 
  0.2480484  0.2587545  0.0067571

 Al 
  0.4949210  0.0111690  0.0030494

 Al 
  0.4976363  0.2500161  0.2626429

 Al 
  0.7214371  0.9945708  0.2617333

 Al 
  0.7446958  0.2561742  0.9901205

 Al 
  0.0049762  0.5080404  0.0055109

 Al 
  0.0177726  0.7278254  0.2556841

 Al 
  0.2590144  0.4929979  0.2535332

 Al 
  0.2655636  0.7389263  0.0116591

 Al 
  0.9995879  0.0094599  0.4940807

 Al 
  0.9823524  0.2573783  0.7401837

 Al 
  0.2415908  0.0088622  0.7623212

 Al 
  0.2404163  0.2398965  0.5026199

 Al 
  0.0015371  0.4938122  0.4929075

 Al 
  0.9775197  0.7515915  0.7536186

 Al 
  0.2677677  0.5009777  0.7238194

 Al 
  0.2608559  0.7625439  0.5036063

 Al 
  0.5188840  0.4876095  0.9937491

 Al 
  0.5153334  0.7299292  0.2508725

 Al 
  0.7458542  0.4943914  0.2430003

 Al 
  0.7444867  0.7363831  0.0120093

 Al 
  0.4987303  0.0044874  0.5085540

 Al 
  0.4898334  0.2622284  0.7394287

 Al 
  0.7427083  0.0063660  0.7649844

 Al 
  0.7559118  0.2505284  0.5117816

 Al 
  0.5045270  0.5010247  0.4853869

 Al 
  0.5155302  0.7438171  0.7381429

 Al 
  0.7562163  0.5009777  0.7460955

 Al 
  0.7663061  0.7429001  0.4791161

