32 
charge = 0 
 Al 
  0.9873868  0.0153631  0.0089773

 Al 
  0.9885142  0.2613286  0.2343832

 Al 
  0.2435572  0.9996126  0.2591765

 Al 
  0.2477006  0.2583127  0.0072793

 Al 
  0.4940733  0.0112989  0.0032882

 Al 
  0.4973034  0.2508985  0.2626467

 Al 
  0.7215460  0.9939966  0.2616950

 Al 
  0.7446525  0.2569303  0.9899807

 Al 
  0.0054478  0.5077756  0.0055133

 Al 
  0.0183097  0.7274838  0.2553747

 Al 
  0.2592854  0.4929100  0.2531892

 Al 
  0.2654213  0.7390983  0.0111418

 Al 
  0.9997624  0.0093758  0.4935634

 Al 
  0.9826778  0.2575318  0.7399126

 Al 
  0.2413234  0.0087001  0.7620477

 Al 
  0.2404151  0.2397196  0.5023056

 Al 
  0.0015531  0.4938209  0.4926526

 Al 
  0.9777622  0.7513972  0.7538748

 Al 
  0.2680697  0.5008589  0.7248292

 Al 
  0.2608460  0.7625340  0.5035679

 Al 
  0.5190486  0.4879944  0.9938864

 Al 
  0.5154460  0.7298933  0.2512438

 Al 
  0.7459990  0.4942948  0.2432899

 Al 
  0.7447391  0.7360985  0.0123199

 Al 
  0.4989134  0.0048785  0.5084785

 Al 
  0.4892753  0.2622729  0.7391788

 Al 
  0.7425486  0.0062546  0.7655302

 Al 
  0.7559502  0.2506497  0.5117482

 Al 
  0.5038847  0.5008118  0.4857346

 Al 
  0.5156391  0.7439941  0.7380513

 Al 
  0.7563326  0.5010965  0.7457514

 Al 
  0.7666155  0.7428147  0.4793896

