32 
charge = 0 
 Al 
  0.9838201  0.0106368  0.0040394

 Al 
  0.9908012  0.2623298  0.2333449

 Al 
  0.2399634  0.0002995  0.2602173

 Al 
  0.2440411  0.2531347  0.0125910

 Al 
  0.4842335  0.0123917  0.0063128

 Al 
  0.4940288  0.2601802  0.2615873

 Al 
  0.7249443  0.9887988  0.2603176

 Al 
  0.7444310  0.2648891  0.9891231

 Al 
  0.0109091  0.5041867  0.0038637

 Al 
  0.0237822  0.7255383  0.2514195

 Al 
  0.2619623  0.4919546  0.2493107

 Al 
  0.2636726  0.7415487  0.0040543

 Al 
  0.0002624  0.0073821  0.4879127

 Al 
  0.9887815  0.2590441  0.7382778

 Al 
  0.2382741  0.0062633  0.7585491

 Al 
  0.2408222  0.2389523  0.4980756

 Al 
  0.0025123  0.4940498  0.4901861

 Al 
  0.9825071  0.7496300  0.7563809

 Al 
  0.2693691  0.5003589  0.7382852

 Al 
  0.2601443  0.7612804  0.5034466

 Al 
  0.5182466  0.4932689  0.9954012

 Al 
  0.5145748  0.7311024  0.2554614

 Al 
  0.7487216  0.4921600  0.2476523

 Al 
  0.7486040  0.7345453  0.0149869

 Al 
  0.5011150  0.0091914  0.5079216

 Al 
  0.4840973  0.2613942  0.7368150

 Al 
  0.7404386  0.0045604  0.7704680

 Al 
  0.7548092  0.2517462  0.5092792

 Al 
  0.4971784  0.4980830  0.4912752

 Al 
  0.5165375  0.7464643  0.7377048

 Al 
  0.7568846  0.5025754  0.7414843

 Al 
  0.7695324  0.7420586  0.4842557

