32 
charge = 0 
 Al 
  0.9828721  0.0088201  0.0026744

 Al 
  0.9915264  0.2622543  0.2336468

 Al 
  0.2391416  0.0004628  0.2600193

 Al 
  0.2430697  0.2515457  0.0138793

 Al 
  0.4813239  0.0126033  0.0073227

 Al 
  0.4933196  0.2625526  0.2608868

 Al 
  0.7266125  0.9877407  0.2595713

 Al 
  0.7444693  0.2669695  0.9890698

 Al 
  0.0125155  0.5029528  0.0028031

 Al 
  0.0251473  0.7255990  0.2501250

 Al 
  0.2625872  0.4917702  0.2481795

 Al 
  0.2631281  0.7424410  0.0016076

 Al 
  0.9998812  0.0064502  0.4863992

 Al 
  0.9912975  0.2593993  0.7382320

 Al 
  0.2373632  0.0053624  0.7573511

 Al 
  0.2410438  0.2391837  0.4966635

 Al 
  0.0031149  0.4941686  0.4896255

 Al 
  0.9845787  0.7492315  0.7569625

 Al 
  0.2689929  0.5005235  0.7428568

 Al 
  0.2597557  0.7605205  0.5035518

 Al 
  0.5171464  0.4951104  0.9958170

 Al 
  0.5136342  0.7319378  0.2567113

 Al 
  0.7498292  0.4912665  0.2492958

 Al 
  0.7500730  0.7345973  0.0155178

 Al 
  0.5017722  0.0103794  0.5078189

 Al 
  0.4829934  0.2606653  0.7363794

 Al 
  0.7397072  0.0039924  0.7715051

 Al 
  0.7540134  0.2519541  0.5079365

 Al 
  0.4954025  0.4972526  0.4933964

 Al 
  0.5166576  0.7473479  0.7378372

 Al 
  0.7568041  0.5030283  0.7401465

 Al 
  0.7702267  0.7419138  0.4862086

