32 
charge = 0 
 Al 
  0.9841394  0.0111925  0.0044948

 Al 
  0.9905673  0.2623162  0.2333016

 Al 
  0.2402554  0.0002401  0.2602322

 Al 
  0.2443679  0.2536459  0.0121405

 Al 
  0.4851851  0.0123137  0.0059960

 Al 
  0.4942886  0.2593671  0.2617791

 Al 
  0.7244604  0.9891887  0.2605279

 Al 
  0.7444285  0.2641837  0.9891552

 Al 
  0.0103831  0.5045740  0.0041557

 Al 
  0.0233107  0.7255779  0.2518304

 Al 
  0.2617420  0.4920289  0.2496807

 Al 
  0.2638471  0.7412739  0.0048215

 Al 
  0.0003366  0.0076531  0.4884251

 Al 
  0.9880216  0.2589191  0.7383298

 Al 
  0.2385699  0.0065418  0.7589216

 Al 
  0.2407579  0.2389213  0.4985236

 Al 
  0.0023489  0.4940164  0.4903854

 Al 
  0.9818957  0.7497686  0.7561754

 Al 
  0.2694186  0.5003341  0.7368484

 Al 
  0.2602544  0.7614920  0.5034280

 Al 
  0.5185275  0.4926947  0.9952626

 Al 
  0.5148210  0.7308710  0.2550554

 Al 
  0.7483850  0.4924323  0.2471487

 Al 
  0.7481548  0.7345725  0.0147926

 Al 
  0.5008985  0.0087929  0.5079575

 Al 
  0.4844971  0.2615885  0.7369883

 Al 
  0.7406663  0.0047448  0.7700906

 Al 
  0.7550307  0.2516682  0.5096654

 Al 
  0.4977749  0.4983553  0.4906267

 Al 
  0.5164819  0.7461908  0.7376838

 Al 
  0.7568895  0.5024269  0.7419150

 Al 
  0.7692924  0.7421130  0.4836629

