32 
charge = 0 
 Al 
  0.9819687  0.0068239  0.0013465

 Al 
  0.9922677  0.2620019  0.2341963

 Al 
  0.2384288  0.0005965  0.2595936

 Al 
  0.2421266  0.2499010  0.0150376

 Al 
  0.4784008  0.0127679  0.0084006

 Al 
  0.4927429  0.2647654  0.2600007

 Al 
  0.7285716  0.9868657  0.2586518

 Al 
  0.7445609  0.2689446  0.9890810

 Al 
  0.0141243  0.5016311  0.0014801

 Al 
  0.0264059  0.7259282  0.2487624

 Al 
  0.2631355  0.4916625  0.2470360

 Al 
  0.2625625  0.7434248  0.9989901

 Al 
  0.9992698  0.0053586  0.4849636

 Al 
  0.9941142  0.2597173  0.7383496

 Al 
  0.2364314  0.0043698  0.7560418

 Al 
  0.2412962  0.2396230  0.4951760

 Al 
  0.0038859  0.4943184  0.4891367

 Al 
  0.9869784  0.7488652  0.7574736

 Al 
  0.2682776  0.5008292  0.7477303

 Al 
  0.2592867  0.7595837  0.5037362

 Al 
  0.5156812  0.4971029  0.9962230

 Al 
  0.5124140  0.7329612  0.2579860

 Al 
  0.7510519  0.4903025  0.2511138

 Al 
  0.7517016  0.7348324  0.0159695

 Al 
  0.5024194  0.0115254  0.5077137

 Al 
  0.4820541  0.2597297  0.7360997

 Al 
  0.7389164  0.0034256  0.7723900

 Al 
  0.7530494  0.2521187  0.5063574

 Al 
  0.4936798  0.4964346  0.4957391

 Al 
  0.5166922  0.7483045  0.7380773

 Al 
  0.7566321  0.5034825  0.7387741

 Al 
  0.7708715  0.7417987  0.4883706

