32 
charge = 0 
 Al 
  0.9844612  0.0117234  0.0049490

 Al 
  0.9903383  0.2622865  0.2332855

 Al 
  0.2405549  0.0001794  0.2602247

 Al 
  0.2446946  0.2541483  0.0116826

 Al 
  0.4861244  0.0122308  0.0056878

 Al 
  0.4945572  0.2585454  0.2619487

 Al 
  0.7240124  0.9895946  0.2607185

 Al 
  0.7444322  0.2634733  0.9891973

 Al 
  0.0098621  0.5049478  0.0044169

 Al 
  0.0228343  0.7256448  0.2522301

 Al 
  0.2615168  0.4921068  0.2500470

 Al 
  0.2640191  0.7410116  0.0055616

 Al 
  0.0003849  0.0079055  0.4889387

 Al 
  0.9873051  0.2587916  0.7384016

 Al 
  0.2388607  0.0068066  0.7592805

 Al 
  0.2406972  0.2389127  0.4989580

 Al 
  0.0022029  0.4939854  0.4905896

 Al 
  0.9813239  0.7499121  0.7559651

 Al 
  0.2694334  0.5003267  0.7354574

 Al 
  0.2603547  0.7616814  0.5034157

 Al 
  0.5187652  0.4921415  0.9951240

 Al 
  0.5150327  0.7306643  0.2546545

 Al 
  0.7480657  0.4926910  0.2466697

 Al 
  0.7477278  0.7346208  0.0145896

 Al 
  0.5006856  0.0083956  0.5079959

 Al 
  0.4849116  0.2617581  0.7371727

 Al 
  0.7408866  0.0049230  0.7696995

 Al 
  0.7552287  0.2515841  0.5100181

 Al 
  0.4983738  0.4986251  0.4900079

 Al 
  0.5164212  0.7459272  0.7376739

 Al 
  0.7568821  0.5022821  0.7423370

 Al 
  0.7690473  0.7421712  0.4830998

