32 
charge = 0 
 Al 
  0.9816841  0.0061334  0.0009220

 Al 
  0.9925140  0.2618781  0.2344302

 Al 
  0.2382196  0.0006312  0.2594042

 Al 
  0.2418234  0.2493515  0.0153829

 Al 
  0.4774442  0.0128100  0.0087694

 Al 
  0.4925858  0.2654497  0.2596691

 Al 
  0.7292758  0.9866195  0.2583115

 Al 
  0.7446042  0.2695671  0.9890983

 Al 
  0.0146503  0.5011782  0.0009888

 Al 
  0.0267920  0.7260952  0.2483021

 Al 
  0.2632951  0.4916489  0.2466598

 Al 
  0.2623731  0.7437676  0.9980979

 Al 
  0.9990199  0.0049663  0.4845144

 Al 
  0.9951005  0.2598126  0.7384226

 Al 
  0.2361207  0.0040246  0.7555851

 Al 
  0.2413841  0.2398136  0.4946723

 Al 
  0.0041780  0.4943740  0.4889931

 Al 
  0.9878385  0.7487501  0.7576246

 Al 
  0.2679669  0.5009603  0.7493911

 Al 
  0.2591146  0.7592384  0.5038154

 Al 
  0.5151230  0.4977910  0.9963554

 Al 
  0.5119549  0.7333362  0.2584092

 Al 
  0.7514752  0.4899782  0.2517487

 Al 
  0.7522685  0.7349463  0.0161007

 Al 
  0.5026261  0.0118893  0.5076741

 Al 
  0.4817818  0.2593795  0.7360477

 Al 
  0.7386454  0.0032424  0.7726462

 Al 
  0.7527016  0.2521633  0.5057918

 Al 
  0.4931266  0.4961710  0.4965522

 Al 
  0.5166823  0.7486337  0.7381800

 Al 
  0.7565566  0.5036310  0.7383186

 Al 
  0.7710720  0.7417677  0.4891218

