32 
charge = 0 
 Al 
  0.9811544  0.0047374  0.0001114

 Al 
  0.9929954  0.2615712  0.2349661

 Al 
  0.2378508  0.0006856  0.2589637

 Al 
  0.2412393  0.2482637  0.0160017

 Al 
  0.4755903  0.0128719  0.0095070

 Al 
  0.4923333  0.2667195  0.2589637

 Al 
  0.7307386  0.9861987  0.2575875

 Al 
  0.7447069  0.2707366  0.9891491

 Al 
  0.0156651  0.5002710  0.9999480

 Al 
  0.0275024  0.7265111  0.2473826

 Al 
  0.2635736  0.4916588  0.2459247

 Al 
  0.2619957  0.7444681  0.9963096

 Al 
  0.9984642  0.0041508  0.4836766

 Al 
  0.9971053  0.2599822  0.7386144

 Al 
  0.2355106  0.0033241  0.7546545

 Al 
  0.2415623  0.2402530  0.4936686

 Al 
  0.0048092  0.4944953  0.4887382

 Al 
  0.9896255  0.7485310  0.7578919

 Al 
  0.2672541  0.5012586  0.7527140

 Al 
  0.2587483  0.7585070  0.5039973

 Al 
  0.5139238  0.4991807  0.9966091

 Al 
  0.5109772  0.7341270  0.2592409

 Al 
  0.7523303  0.4893396  0.2530370

 Al 
  0.7534243  0.7352186  0.0163346

 Al 
  0.5030172  0.0125761  0.5075887

 Al 
  0.4813017  0.2586308  0.7360118

 Al 
  0.7380984  0.0028971  0.7730954

 Al 
  0.7519776  0.2522388  0.5046235

 Al 
  0.4920660  0.4956698  0.4982031

 Al 
  0.5166254  0.7492971  0.7384214

 Al 
  0.7563846  0.5039132  0.7374264

 Al 
  0.7714470  0.7417182  0.4906378

