32 
charge = 0 
 Al 
  0.9801186  0.0013465  0.9983986

 Al 
  0.9940845  0.2605057  0.2366046

 Al 
  0.2372383  0.0007029  0.2576073

 Al 
  0.2399597  0.2457465  0.0170412

 Al 
  0.4715274  0.0128843  0.0112668

 Al 
  0.4920883  0.2691797  0.2570430

 Al 
  0.7345082  0.9855774  0.2556210

 Al 
  0.7450584  0.2731239  0.9893594

 Al 
  0.0178630  0.4980966  0.9971734

 Al 
  0.0288488  0.7279330  0.2451995

 Al 
  0.2639857  0.4919237  0.2442713

 Al 
  0.2610923  0.7462366  0.9920623

 Al 
  0.9968554  0.0020383  0.4820232

 Al 
  0.0020420  0.2602730  0.7393087

 Al 
  0.2341122  0.0015940  0.7523155

 Al 
  0.2419917  0.2416081  0.4912900

 Al 
  0.0065838  0.4948357  0.4883174

 Al 
  0.9942391  0.7480521  0.7583313

 Al 
  0.2650648  0.5021360  0.7606084

 Al 
  0.2577558  0.7565529  0.5045604

 Al 
  0.5106529  0.5025865  0.9971709

 Al 
  0.5083412  0.7362296  0.2611517

 Al 
  0.7543921  0.4879474  0.2562113

 Al 
  0.7562782  0.7360551  0.0167417

 Al 
  0.5038018  0.0139622  0.5072967

 Al 
  0.4804836  0.2566148  0.7363509

 Al 
  0.7367828  0.0021917  0.7738317

 Al 
  0.7501522  0.2523402  0.5016719

 Al 
  0.4897579  0.4946315  0.5022511

 Al 
  0.5162628  0.7509059  0.7391862

 Al 
  0.7558809  0.5045097  0.7354252

 Al 
  0.7721957  0.7416811  0.4943109

