32 
charge = 0 
 Al 
  0.9798413  0.0000953  0.9978578

 Al 
  0.9944557  0.2599834  0.2373348

 Al 
  0.2371170  0.0006522  0.2570120

 Al 
  0.2395277  0.2448616  0.0172380

 Al 
  0.4701995  0.0128273  0.0119041

 Al 
  0.4921464  0.2698530  0.2562509

 Al 
  0.7359846  0.9854945  0.2548092

 Al 
  0.7452304  0.2738466  0.9894696

 Al 
  0.0185597  0.4972996  0.9960670

 Al 
  0.0292040  0.7286162  0.2444050

 Al 
  0.2640278  0.4921316  0.2437070

 Al 
  0.2607569  0.7469308  0.9905388

 Al 
  0.9961759  0.0012054  0.4815616

 Al 
  0.0038872  0.2603312  0.7396453

 Al 
  0.2336270  0.0009443  0.7514059

 Al 
  0.2421477  0.2422133  0.4904299

 Al 
  0.0073425  0.4949842  0.4882394

 Al 
  0.9960509  0.7478862  0.7584092

 Al 
  0.2640946  0.5024999  0.7634511

 Al 
  0.2573437  0.7557621  0.5048104

 Al 
  0.5093238  0.5038649  0.9973615

 Al 
  0.5072719  0.7370848  0.2618237

 Al 
  0.7551458  0.4875142  0.2573969

 Al 
  0.7573536  0.7364091  0.0168333

 Al 
  0.5040196  0.0143582  0.5071407

 Al 
  0.4802943  0.2557992  0.7366566

 Al 
  0.7363014  0.0019838  0.7739741

 Al 
  0.7494641  0.2523464  0.5005470

 Al 
  0.4889894  0.4943208  0.5037647

 Al 
  0.5160339  0.7515024  0.7395414

 Al 
  0.7556730  0.5046904  0.7347569

 Al 
  0.7724123  0.7417059  0.4956586

