32 
charge = 0 
 Al 
  0.9797621  0.9945795  0.9961710

 Al 
  0.9958158  0.2563450  0.2416650

 Al 
  0.2374511  0.9997042  0.2538018

 Al 
  0.2378211  0.2413173  0.0162430

 Al 
  0.4659720  0.0119078  0.0145364

 Al 
  0.4938308  0.2707737  0.2518786

 Al 
  0.7433221  0.9863707  0.2503218

 Al 
  0.7464445  0.2758453  0.9902294

 Al 
  0.0201686  0.4937231  0.9908086

 Al 
  0.0294837  0.7330714  0.2408259

 Al 
  0.2630996  0.4942738  0.2415314

 Al 
  0.2591196  0.7507933  0.9844661

 Al 
  0.9925833  0.9969927  0.4809589

 Al 
  0.0122519  0.2600700  0.7417430

 Al 
  0.2318425  0.9980335  0.7466895

 Al 
  0.2428593  0.2458170  0.4867061

 Al 
  0.0118175  0.4959173  0.4887159

 Al 
  0.0050332  0.7470893  0.7578202

 Al 
  0.2586456  0.5040617  0.7750903

 Al 
  0.2550220  0.7515420  0.5062485

 Al 
  0.5026236  0.5098745  0.9981981

 Al 
  0.5016596  0.7418011  0.2646626

 Al 
  0.7584352  0.4867804  0.2626665

 Al 
  0.7623818  0.7379697  0.0167083

 Al 
  0.5042325  0.0148866  0.5057225

 Al 
  0.4801854  0.2515915  0.7399980

 Al 
  0.7341889  0.0015977  0.7734345

 Al 
  0.7464259  0.2520160  0.4954198

 Al 
  0.4860378  0.4936723  0.5107841

 Al 
  0.5140154  0.7542547  0.7418172

 Al 
  0.7546755  0.5049923  0.7325974

 Al 
  0.7727922  0.7423370  0.5015408

