32 
charge = 0 
 Al 
  0.9795419  0.9958777  0.9964531

 Al 
  0.9955448  0.2574675  0.2404374

 Al 
  0.2372160  0.0000854  0.2546433

 Al 
  0.2382011  0.2420907  0.0168445

 Al 
  0.4666489  0.0122630  0.0139585

 Al 
  0.4931588  0.2709297  0.2530939

 Al 
  0.7414249  0.9859351  0.2515643

 Al 
  0.7460658  0.2755755  0.9900017

 Al 
  0.0201178  0.4945894  0.9920734

 Al 
  0.0296644  0.7317472  0.2416984

 Al 
  0.2635402  0.4935189  0.2419930

 Al 
  0.2595490  0.7496857  0.9857458

 Al 
  0.9935275  0.9980942  0.4808190

 Al 
  0.0102272  0.2602396  0.7411452

 Al 
  0.2321865  0.9987204  0.7479642

 Al 
  0.2426786  0.2447899  0.4875761

 Al 
  0.0105279  0.4956364  0.4884350

 Al 
  0.0027288  0.7473058  0.7581568

 Al 
  0.2601220  0.5037436  0.7725533

 Al 
  0.2556755  0.7526917  0.5058512

 Al 
  0.5043364  0.5083709  0.9979865

 Al 
  0.5031595  0.7404881  0.2640005

 Al 
  0.7576593  0.4866875  0.2614215

 Al 
  0.7611356  0.7376392  0.0168420

 Al 
  0.5043302  0.0150079  0.5062188

 Al 
  0.4800963  0.2527004  0.7388013

 Al 
  0.7346876  0.0015828  0.7737847

 Al 
  0.7471350  0.2521744  0.4966450

 Al 
  0.4866789  0.4936835  0.5090453

 Al 
  0.5146948  0.7535728  0.7411403

 Al 
  0.7549181  0.5050307  0.7329414

 Al 
  0.7728219  0.7420746  0.5001634

