32 
charge = 0 
 Al 
  0.9796458  0.9989233  0.9973986

 Al 
  0.9947849  0.2594154  0.2380885

 Al 
  0.2370600  0.0005680  0.2564093

 Al 
  0.2391404  0.2440572  0.0173123

 Al 
  0.4690535  0.0127370  0.0124932

 Al 
  0.4922875  0.2703517  0.2554601

 Al 
  0.7374140  0.9854958  0.2539961

 Al 
  0.7454173  0.2744419  0.9895921

 Al 
  0.0191364  0.4965534  0.9949928

 Al 
  0.0294577  0.7293451  0.2436600

 Al 
  0.2640018  0.4923952  0.2431996

 Al 
  0.2604364  0.7476165  0.9891429

 Al 
  0.9954977  0.0003935  0.4812150

 Al 
  0.0056272  0.2603572  0.7400017

 Al 
  0.2331927  0.0003304  0.7505198

 Al 
  0.2422925  0.2428382  0.4896292

 Al 
  0.0081159  0.4951376  0.4882135

 Al 
  0.9978095  0.7477315  0.7584303

 Al 
  0.2631045  0.5028513  0.7660685

 Al 
  0.2569291  0.7549800  0.5050678

 Al 
  0.5080182  0.5050802  0.9975360

 Al 
  0.5062163  0.7379362  0.2624400

 Al 
  0.7558475  0.4871690  0.2585107

 Al 
  0.7583758  0.7367531  0.0168865

 Al 
  0.5041805  0.0146589  0.5069576

 Al 
  0.4801705  0.2549973  0.7370563

 Al 
  0.7358522  0.0018205  0.7740359

 Al 
  0.7488157  0.2523340  0.4994777

 Al 
  0.4883063  0.4940721  0.5051978

 Al 
  0.5157616  0.7520655  0.7399163

 Al 
  0.7554700  0.5048339  0.7341753

 Al 
  0.7725818  0.7417566  0.4969172

