32 
charge = 0 
 Al 
  0.9795951  0.9954309  0.9963480

 Al 
  0.9956413  0.2571061  0.2408420

 Al 
  0.2372828  0.9999691  0.2543599

 Al 
  0.2380699  0.2418197  0.0166712

 Al 
  0.4663866  0.0121541  0.0141627

 Al 
  0.4933654  0.2709086  0.2526929

 Al 
  0.7420623  0.9860650  0.2511546

 Al 
  0.7461871  0.2756844  0.9900760

 Al 
  0.0201686  0.4942936  0.9916366

 Al 
  0.0296248  0.7321779  0.2414014

 Al 
  0.2634090  0.4937553  0.2418308

 Al 
  0.2594067  0.7500458  0.9852891

 Al 
  0.9932107  0.9977254  0.4808413

 Al 
  0.0109178  0.2601913  0.7413433

 Al 
  0.2320603  0.9984827  0.7475422

 Al 
  0.2427392  0.2451277  0.4872766

 Al 
  0.0109500  0.4957267  0.4885154

 Al 
  0.0035048  0.7472353  0.7580602

 Al 
  0.2596295  0.5038600  0.7734481

 Al 
  0.2554601  0.7523118  0.5059824

 Al 
  0.5037572  0.5088795  0.9980570

 Al 
  0.5026595  0.7409200  0.2642283

 Al 
  0.7579254  0.4866925  0.2618497

 Al 
  0.7615576  0.7377593  0.0168061

 Al 
  0.5043092  0.0149894  0.5060641

 Al 
  0.4801186  0.2523291  0.7391738

 Al 
  0.7345169  0.0015791  0.7736845

 Al 
  0.7468900  0.2521286  0.4962242

 Al 
  0.4864549  0.4936662  0.5096344

 Al 
  0.5144807  0.7538030  0.7413606

 Al 
  0.7548339  0.5050282  0.7328078

 Al 
  0.7728231  0.7421526  0.5006373

