32 
charge = 0 
 Al 
  0.9795097  0.9963393  0.9965720

 Al 
  0.9954396  0.2578177  0.2400376

 Al 
  0.2371591  0.0001906  0.2549304

 Al 
  0.2383384  0.2423766  0.0169905

 Al 
  0.4669484  0.0123632  0.0137444

 Al 
  0.4929694  0.2709210  0.2534912

 Al 
  0.7407814  0.9858200  0.2519714

 Al 
  0.7459470  0.2754455  0.9899300

 Al 
  0.0200337  0.4948926  0.9925251

 Al 
  0.0296842  0.7313252  0.2420016

 Al 
  0.2636553  0.4932961  0.2421662

 Al 
  0.2596926  0.7493330  0.9862321

 Al 
  0.9938481  0.9984654  0.4808215

 Al 
  0.0095181  0.2602792  0.7409497

 Al 
  0.2323251  0.9989654  0.7483837

 Al 
  0.2426179  0.2444570  0.4878855

 Al 
  0.0101146  0.4955485  0.4883669

 Al 
  0.0019430  0.7473764  0.7582385

 Al 
  0.2606170  0.5036162  0.7716091

 Al 
  0.2558871  0.7530704  0.5057200

 Al 
  0.5049243  0.5078536  0.9979159

 Al 
  0.5036607  0.7400599  0.2637654

 Al 
  0.7573845  0.4867086  0.2609784

 Al 
  0.7607037  0.7375105  0.0168705

 Al 
  0.5043377  0.0150054  0.5063648

 Al 
  0.4800839  0.2530729  0.7384523

 Al 
  0.7348646  0.0015977  0.7738689

 Al 
  0.7473887  0.2522152  0.4970794

 Al 
  0.4869140  0.4937132  0.5084451

 Al 
  0.5148990  0.7533365  0.7409262

 Al 
  0.7550035  0.5050220  0.7330961

 Al 
  0.7728095  0.7420029  0.4996720

