32 
charge = 0 
 Al 
  0.9813957  0.9916056  0.9958084

 Al 
  0.9963356  0.2526224  0.2452985

 Al 
  0.2385451  0.9981189  0.2516794

 Al 
  0.2369450  0.2397097  0.0133892

 Al 
  0.4657913  0.0104747  0.0156242

 Al 
  0.4964395  0.2690758  0.2481956

 Al 
  0.7484271  0.9882543  0.2466400

 Al 
  0.7476957  0.2758007  0.9909336

 Al 
  0.0186154  0.4915796  0.9881739

 Al 
  0.0280555  0.7372172  0.2386157

 Al 
  0.2611542  0.4970447  0.2405896

 Al 
  0.2578362  0.7544206  0.9823251

 Al 
  0.9901391  0.9939780  0.4824860

 Al 
  0.0172454  0.2591604  0.7434224

 Al 
  0.2314353  0.9965163  0.7429063

 Al 
  0.2434063  0.2488936  0.4846926

 Al 
  0.0158482  0.4968789  0.4901205

 Al 
  0.0110663  0.7463616  0.7561086

 Al 
  0.2546755  0.5043624  0.7798426

 Al 
  0.2530147  0.7481399  0.5073548

 Al 
  0.4983083  0.5137963  0.9988726

 Al 
  0.4974382  0.7457861  0.2662480

 Al 
  0.7602767  0.4883261  0.2655339

 Al 
  0.7655215  0.7383558  0.0159212

 Al 
  0.5033996  0.0135624  0.5038117

 Al 
  0.4807534  0.2485496  0.7445522

 Al 
  0.7330268  0.0020816  0.7717106

 Al 
  0.7447911  0.2512326  0.4926278

 Al 
  0.4846480  0.4942008  0.5152827

 Al 
  0.5115588  0.7560344  0.7439780

 Al 
  0.7540914  0.5043785  0.7325194

 Al 
  0.7721177  0.7434793  0.5047337

