32 
charge = 0 
 Al 
  0.9805802  0.9926538  0.9958938

 Al 
  0.9961636  0.2541681  0.2438567

 Al 
  0.2380538  0.9988218  0.2524566

 Al 
  0.2372605  0.2402505  0.0146862

 Al 
  0.4655722  0.0111071  0.0152926

 Al 
  0.4953096  0.2699297  0.2496832

 Al 
  0.7464705  0.9874152  0.2481115

 Al 
  0.7471808  0.2759430  0.9906477

 Al 
  0.0195201  0.4923692  0.9890228

 Al 
  0.0287647  0.7355341  0.2394411

 Al 
  0.2620316  0.4958616  0.2409039

 Al 
  0.2583585  0.7529058  0.9829080

 Al 
  0.9910475  0.9951426  0.4817002

 Al 
  0.0154052  0.2595948  0.7427763

 Al 
  0.2314960  0.9970348  0.7444273

 Al 
  0.2431786  0.2476660  0.4854104

 Al 
  0.0142060  0.4964705  0.4894659

 Al 
  0.0087916  0.7466722  0.7569093

 Al 
  0.2561804  0.5043537  0.7783959

 Al 
  0.2538290  0.7495013  0.5069291

 Al 
  0.4998973  0.5123125  0.9985879

 Al 
  0.4990867  0.7441748  0.2656713

 Al 
  0.7596109  0.4874957  0.2645178

 Al 
  0.7643594  0.7383063  0.0163012

 Al 
  0.5038154  0.0142406  0.5046470

 Al 
  0.4804836  0.2497253  0.7425746

 Al 
  0.7334389  0.0018192  0.7725051

 Al 
  0.7453752  0.2516002  0.4936043

 Al 
  0.4851282  0.4939050  0.5135822

 Al 
  0.5126095  0.7553586  0.7430907

 Al 
  0.7543055  0.5047052  0.7324019

 Al 
  0.7724890  0.7429645  0.5035951

