32 
charge = 0 
 Al 
  0.9798785  0.9941736  0.9960980

 Al 
  0.9958950  0.2559428  0.2420870

 Al 
  0.2375501  0.9995532  0.2535271

 Al 
  0.2377036  0.2410846  0.0159893

 Al 
  0.4658198  0.0117705  0.0147072

 Al 
  0.4940894  0.2706623  0.2514603

 Al 
  0.7439483  0.9865465  0.2498973

 Al 
  0.7465806  0.2758985  0.9903086

 Al 
  0.0201153  0.4934459  0.9904188

 Al 
  0.0293834  0.7335355  0.2405438

 Al 
  0.2629214  0.4945560  0.2413928

 Al 
  0.2589748  0.7511831  0.9840973

 Al 
  0.9922739  0.9966276  0.4810554

 Al 
  0.0128991  0.2599970  0.7419459

 Al 
  0.2317509  0.9978194  0.7462551

 Al 
  0.2429199  0.2461697  0.4864338

 Al 
  0.0122680  0.4960188  0.4888359

 Al 
  0.0057881  0.7470138  0.7576754

 Al 
  0.2581543  0.5041446  0.7758403

 Al 
  0.2547956  0.7511497  0.5063821

 Al 
  0.5020680  0.5103646  0.9982711

 Al 
  0.5011559  0.7422529  0.2648718

 Al 
  0.7586803  0.4868645  0.2630563

 Al 
  0.7627840  0.7380600  0.0166465

 Al 
  0.5041743  0.0148025  0.5055344

 Al 
  0.4802312  0.2512227  0.7404497

 Al 
  0.7340317  0.0016224  0.7732835

 Al 
  0.7462044  0.2519492  0.4950361

 Al 
  0.4858423  0.4936934  0.5113484

 Al 
  0.5137642  0.7544763  0.7420561

 Al 
  0.7545988  0.5049577  0.7325194

 Al 
  0.7727588  0.7424422  0.5019727

