32 
charge = 0 
 Al 
  0.9800171  0.9937775  0.9960348

 Al 
  0.9959680  0.2555257  0.2425152

 Al 
  0.2376603  0.9993911  0.2532560

 Al 
  0.2375885  0.2408618  0.0157071

 Al 
  0.4657034  0.0116219  0.0148681

 Al 
  0.4943654  0.2705213  0.2510334

 Al 
  0.7445745  0.9867395  0.2494654

 Al 
  0.7467229  0.2759344  0.9903903

 Al 
  0.0200262  0.4931724  0.9900438

 Al 
  0.0292609  0.7340132  0.2402653

 Al 
  0.2627259  0.4948555  0.2412628

 Al 
  0.2588263  0.7515878  0.9837570

 Al 
  0.9919657  0.9962601  0.4811767

 Al 
  0.0135365  0.2599129  0.7421501

 Al 
  0.2316692  0.9976140  0.7458146

 Al 
  0.2429818  0.2465311  0.4861690

 Al 
  0.0127296  0.4961240  0.4889696

 Al 
  0.0065393  0.7469346  0.7575132

 Al 
  0.2576630  0.5042164  0.7765470

 Al 
  0.2545641  0.7507512  0.5065170

 Al 
  0.5015185  0.5108522  0.9983454

 Al 
  0.5006485  0.7427145  0.2650760

 Al 
  0.7589191  0.4869759  0.2634350

 Al 
  0.7631825  0.7381392  0.0165759

 Al 
  0.5041038  0.0146961  0.5053339

 Al 
  0.4802832  0.2508527  0.7409324

 Al 
  0.7338783  0.0016559  0.7731164

 Al 
  0.7459891  0.2518749  0.4946636

 Al 
  0.4856542  0.4937268  0.5119091

 Al 
  0.5134981  0.7546978  0.7423011

 Al 
  0.7545233  0.5049131  0.7324625

 Al 
  0.7727117  0.7425561  0.5023922

