32 
charge = 0 
 Al 
  0.9817311  0.9912727  0.9957898

 Al 
  0.9963900  0.2520593  0.2458059

 Al 
  0.2387308  0.9978528  0.2514269

 Al 
  0.2368410  0.2395426  0.0128905

 Al 
  0.4659497  0.0102346  0.0157121

 Al 
  0.4968603  0.2687317  0.2476610

 Al 
  0.7490978  0.9885736  0.2461165

 Al 
  0.7478813  0.2757190  0.9910363

 Al 
  0.0182144  0.4913173  0.9879350

 Al 
  0.0277672  0.7378199  0.2383384

 Al 
  0.2608163  0.4974816  0.2404918

 Al 
  0.2576457  0.7549787  0.9821940

 Al 
  0.9898371  0.9935758  0.4828127

 Al 
  0.0178580  0.2589859  0.7436414

 Al 
  0.2314428  0.9963579  0.7423618

 Al 
  0.2434917  0.2493268  0.4844612

 Al 
  0.0164373  0.4970311  0.4903767

 Al 
  0.0118336  0.7462452  0.7557918

 Al 
  0.2541693  0.5043339  0.7802324

 Al 
  0.2527226  0.7476561  0.5074996

 Al 
  0.4977848  0.5143025  0.9989802

 Al 
  0.4968653  0.7463640  0.2664373

 Al 
  0.7604958  0.4886800  0.2658594

 Al 
  0.7659076  0.7383422  0.0157690

 Al 
  0.5032300  0.0132828  0.5034961

 Al 
  0.4808599  0.2481437  0.7452960

 Al 
  0.7328956  0.0021930  0.7714012

 Al 
  0.7446005  0.2510866  0.4923209

 Al 
  0.4844971  0.4943270  0.5158618

 Al 
  0.5111665  0.7562658  0.7442998

 Al 
  0.7540196  0.5042411  0.7326011

 Al 
  0.7719568  0.7436773  0.5051025

