32 
charge = 0 
 Al 
  0.9829526  0.9903260  0.9957490

 Al 
  0.9965546  0.2502153  0.2474110

 Al 
  0.2393582  0.9969531  0.2506930

 Al 
  0.2365328  0.2390797  0.0111938

 Al 
  0.4666984  0.0094129  0.0159027

 Al 
  0.4982612  0.2675202  0.2459321

 Al 
  0.7511782  0.9896527  0.2444396

 Al 
  0.7484778  0.2753663  0.9913680

 Al 
  0.0166836  0.4905351  0.9873744

 Al 
  0.0267301  0.7397604  0.2374994

 Al 
  0.2596542  0.4989221  0.2402146

 Al 
  0.2570145  0.7568289  0.9820046

 Al 
  0.9889486  0.9923209  0.4839996

 Al 
  0.0196970  0.2583523  0.7443035

 Al 
  0.2315616  0.9959272  0.7405945

 Al 
  0.2437924  0.2506980  0.4837830

 Al 
  0.0183419  0.4975434  0.4912752

 Al 
  0.0141627  0.7458480  0.7546792

 Al 
  0.2526360  0.5041458  0.7811012

 Al 
  0.2517759  0.7461079  0.5079390

 Al 
  0.4962378  0.5158581  0.9993515

 Al 
  0.4950646  0.7482352  0.2669992

 Al 
  0.7611430  0.4900017  0.2668024

 Al 
  0.7670598  0.7382036  0.0152158

 Al 
  0.5026212  0.0122779  0.5024293

 Al 
  0.4812311  0.2468764  0.7478033

 Al 
  0.7325269  0.0026038  0.7703270

 Al 
  0.7440362  0.2505680  0.4914571

 Al 
  0.4840750  0.4947861  0.5176452

 Al 
  0.5098547  0.7569860  0.7453505

 Al 
  0.7537993  0.5037313  0.7329786

 Al 
  0.7713381  0.7443580  0.5061791

