32 
charge = 0 
 Al 
  0.9834340  0.9900290  0.9957366

 Al 
  0.9966116  0.2495495  0.2479716

 Al 
  0.2395896  0.9966215  0.2504591

 Al 
  0.2364314  0.2389362  0.0105614

 Al 
  0.4670474  0.0091047  0.0159386

 Al 
  0.4987723  0.2670573  0.2453134

 Al 
  0.7518922  0.9900549  0.2438444

 Al 
  0.7486894  0.2752116  0.9914868

 Al 
  0.0160586  0.4902777  0.9872482

 Al 
  0.0263242  0.7404510  0.2372197

 Al 
  0.2592174  0.4994443  0.2401267

 Al 
  0.2567818  0.7575058  0.9820145

 Al 
  0.9886602  0.9918878  0.4844674

 Al 
  0.0203084  0.2581036  0.7445250

 Al 
  0.2316370  0.9957997  0.7399609

 Al 
  0.2439087  0.2511769  0.4835639

 Al 
  0.0190189  0.4977328  0.4916192

 Al 
  0.0149423  0.7456982  0.7542535

 Al 
  0.2521249  0.5040468  0.7812856

 Al 
  0.2514380  0.7455596  0.5080850

 Al 
  0.4957341  0.5163890  0.9994938

 Al 
  0.4944396  0.7489048  0.2671836

 Al 
  0.7613571  0.4905326  0.2671044

 Al 
  0.7674397  0.7381231  0.0149980

 Al 
  0.5023823  0.0118868  0.5020321

 Al 
  0.4813722  0.2464383  0.7487327

 Al 
  0.7324142  0.0027660  0.7699198

 Al 
  0.7438493  0.2503676  0.4911923

 Al 
  0.4839463  0.4949656  0.5182553

 Al 
  0.5093696  0.7572348  0.7457292

 Al 
  0.7537251  0.5035283  0.7331518

 Al 
  0.7710844  0.7446141  0.5065281

