32 
charge = 0 
 Al 
  0.9863868  0.9887580  0.9956475

 Al 
  0.9969234  0.2459160  0.2508985

 Al 
  0.2408742  0.9947874  0.2494394

 Al 
  0.2359586  0.2383211  0.0070034

 Al 
  0.4695436  0.0073313  0.0158631

 Al 
  0.5015841  0.2643929  0.2419620

 Al 
  0.7555294  0.9923222  0.2406515

 Al 
  0.7498181  0.2741560  0.9921440

 Al 
  0.0121083  0.4890562  0.9871430

 Al 
  0.0238614  0.7441414  0.2358695

 Al 
  0.2566989  0.5022845  0.2397134

 Al 
  0.2554527  0.7612532  0.9826444

 Al 
  0.9873447  0.9896701  0.4873261

 Al 
  0.0232402  0.2565566  0.7455671

 Al 
  0.2323177  0.9953344  0.7364920

 Al 
  0.2446562  0.2536372  0.4825479

 Al 
  0.0226004  0.4988107  0.4936315

 Al 
  0.0187107  0.7448394  0.7517524

 Al 
  0.2496671  0.5032882  0.7813574

 Al 
  0.2496362  0.7426699  0.5087657

 Al 
  0.4933877  0.5190708  0.0003465

 Al 
  0.4912195  0.7525259  0.2680350

 Al 
  0.7623793  0.4938419  0.2684768

 Al 
  0.7692206  0.7374573  0.0136516

 Al 
  0.5009319  0.0095515  0.4997859

 Al 
  0.4821952  0.2441859  0.7539788

 Al 
  0.7319836  0.0037560  0.7675462

 Al 
  0.7429385  0.2491609  0.4900834

 Al 
  0.4834117  0.4960348  0.5213405

 Al 
  0.5066296  0.7585293  0.7478157

 Al 
  0.7533476  0.5022796  0.7343634

 Al 
  0.7694421  0.7460782  0.5081592

