32 
charge = 0 
 Al 
  0.9929026  0.9878372  0.9950386

 Al 
  0.9976622  0.2395426  0.2555802

 Al 
  0.2431303  0.9917566  0.2486251

 Al 
  0.2355440  0.2377023  0.0005990

 Al 
  0.4763403  0.0037820  0.0146317

 Al 
  0.5064898  0.2593659  0.2361046

 Al 
  0.7610415  0.9965720  0.2350997

 Al 
  0.7517239  0.2713764  0.9933889

 Al 
  0.0032647  0.4876293  0.9891899

 Al 
  0.0184521  0.7503874  0.2343089

 Al 
  0.2517809  0.5071222  0.2390414

 Al 
  0.2527338  0.7679323  0.9857618

 Al 
  0.9860477  0.9863076  0.4935733

 Al 
  0.0267648  0.2529442  0.7466363

 Al 
  0.2347310  0.9953591  0.7301879

 Al 
  0.2466969  0.2572484  0.4813301

 Al 
  0.0281224  0.5007735  0.4976969

 Al 
  0.0232773  0.7431637  0.7468640

 Al 
  0.2465658  0.5012252  0.7784219

 Al 
  0.2467910  0.7381021  0.5093300

 Al 
  0.4906589  0.5231115  0.0022907

 Al 
  0.4863187  0.7587149  0.2688914

 Al 
  0.7637345  0.5012165  0.2700584

 Al 
  0.7711759  0.7356059  0.0104500

 Al 
  0.4977476  0.0048525  0.4955930

 Al 
  0.4838189  0.2406688  0.7638830

 Al 
  0.7321048  0.0057955  0.7627630

 Al 
  0.7416353  0.2466202  0.4893520

 Al 
  0.4831518  0.4981276  0.5259232

 Al 
  0.5013527  0.7607321  0.7516460

 Al 
  0.7528476  0.4995594  0.7375019

 Al 
  0.7653866  0.7488676  0.5102371

