32 
charge = 0 
 Al 
  0.9914484  0.9878645  0.9952440

 Al 
  0.9974766  0.2408061  0.2546965

 Al 
  0.2426897  0.9923048  0.2486733

 Al 
  0.2355663  0.2377840  0.0018625

 Al 
  0.4746968  0.0045456  0.0150092

 Al 
  0.5055294  0.2603918  0.2372704

 Al 
  0.7600416  0.9956982  0.2362111

 Al 
  0.7513502  0.2720534  0.9931241

 Al 
  0.0052176  0.4878298  0.9885315

 Al 
  0.0196649  0.7491684  0.2345094

 Al 
  0.2528167  0.5061866  0.2391849

 Al 
  0.2533315  0.7666118  0.9849277

 Al 
  0.9861863  0.9869115  0.4921836

 Al 
  0.0262685  0.2537832  0.7465249

 Al 
  0.2340936  0.9952589  0.7314786

 Al 
  0.2461784  0.2566247  0.4815170

 Al 
  0.0271521  0.5003898  0.4968306

 Al 
  0.0226288  0.7435127  0.7478689

 Al 
  0.2470484  0.5017103  0.7793104

 Al 
  0.2473009  0.7389337  0.5093114

 Al 
  0.4910574  0.5223739  0.0018403

 Al 
  0.4871999  0.7575145  0.2688048

 Al 
  0.7635092  0.4995755  0.2698220

 Al 
  0.7709334  0.7360304  0.0112061

 Al 
  0.4984580  0.0058388  0.4964457

 Al 
  0.4834736  0.2413210  0.7618360

 Al 
  0.7319625  0.0053648  0.7637914

 Al 
  0.7418692  0.2471734  0.4893644

 Al 
  0.4831209  0.4976969  0.5251040

 Al 
  0.5024615  0.7602879  0.7508564

 Al 
  0.7529231  0.5001596  0.7367630

 Al 
  0.7663482  0.7482922  0.5098918

