32 
charge = 0 
 Al 
  0.9907096  0.9879164  0.9953307

 Al 
  0.9973887  0.2414806  0.2542151

 Al 
  0.2424521  0.9926142  0.2487265

 Al 
  0.2355935  0.2378372  0.0025420

 Al 
  0.4738899  0.0049379  0.0151799

 Al 
  0.5050121  0.2609326  0.2378917

 Al 
  0.7594859  0.9952391  0.2368014

 Al 
  0.7511509  0.2723826  0.9929880

 Al 
  0.0062175  0.4879560  0.9882382

 Al 
  0.0202787  0.7485137  0.2346443

 Al 
  0.2533550  0.5056816  0.2392580

 Al 
  0.2536372  0.7659027  0.9845317

 Al 
  0.9862878  0.9872494  0.4914769

 Al 
  0.0259529  0.2542003  0.7464408

 Al 
  0.2337929  0.9952267  0.7321568

 Al 
  0.2459309  0.2562695  0.4816284

 Al 
  0.0266002  0.5001819  0.4963814

 Al 
  0.0222192  0.7436959  0.7483998

 Al 
  0.2473355  0.5019516  0.7797176

 Al 
  0.2475880  0.7393966  0.5092780

 Al 
  0.4913012  0.5219667  0.0016163

 Al 
  0.4876924  0.7568660  0.2687379

 Al 
  0.7633793  0.4987402  0.2696797

 Al 
  0.7707688  0.7362470  0.0115786

 Al 
  0.4988181  0.0063536  0.4968974

 Al 
  0.4832954  0.2416799  0.7607618

 Al 
  0.7319155  0.0051396  0.7643211

 Al 
  0.7419979  0.2474580  0.4894003

 Al 
  0.4831234  0.4974704  0.5246461

 Al 
  0.5030395  0.7600540  0.7504418

 Al 
  0.7529701  0.5004653  0.7363955

 Al 
  0.7668222  0.7479902  0.5096951

