32 
charge = 0 
 Al 
  0.9921798  0.9878385  0.9951475

 Al 
  0.9975682  0.2401589  0.2551520

 Al 
  0.2429162  0.9920190  0.2486399

 Al 
  0.2355490  0.2377395  0.0012140

 Al 
  0.4755148  0.0041594  0.0148260

 Al 
  0.5060220  0.2598683  0.2366739

 Al 
  0.7605601  0.9961438  0.2356443

 Al 
  0.7515420  0.2717180  0.9932578

 Al 
  0.0042312  0.4877209  0.9888496

 Al 
  0.0190560  0.7497933  0.2343980

 Al 
  0.2522907  0.5066680  0.2391132

 Al 
  0.2530308  0.7672887  0.9853386

 Al 
  0.9861059  0.9865972  0.4928828

 Al 
  0.0265383  0.2533637  0.7465905

 Al 
  0.2344067  0.9953022  0.7308215

 Al 
  0.2464333  0.2569514  0.4814180

 Al 
  0.0276608  0.5005866  0.4972699

 Al 
  0.0229815  0.7433357  0.7473553

 Al 
  0.2467922  0.5014677  0.7788773

 Al 
  0.2470348  0.7385018  0.5093300

 Al 
  0.4908433  0.5227551  0.0020655

 Al 
  0.4867420  0.7581320  0.2688567

 Al 
  0.7636280  0.5004022  0.2699483

 Al 
  0.7710695  0.7358163  0.0108299

 Al 
  0.4981003  0.0053376  0.4960113

 Al 
  0.4836481  0.2409844  0.7628768

 Al 
  0.7320256  0.0055839  0.7632716

 Al 
  0.7417479  0.2468937  0.4893483

 Al 
  0.4831295  0.4979159  0.5255297

 Al 
  0.5018997  0.7605143  0.7512574

 Al 
  0.7528823  0.4998577  0.7371331

 Al 
  0.7658693  0.7485855  0.5100725

