32 
charge = 0 
 Al 
  0.9899696  0.9879944  0.9954062

 Al 
  0.9973034  0.2421811  0.2537090

 Al 
  0.2422046  0.9929434  0.2487983

 Al 
  0.2356307  0.2378966  0.0032486

 Al 
  0.4730991  0.0053364  0.0153359

 Al 
  0.5044738  0.2614908  0.2385352

 Al 
  0.7588956  0.9947676  0.2374103

 Al 
  0.7509418  0.2727043  0.9928494

 Al 
  0.0072237  0.4880996  0.9879721

 Al 
  0.0208925  0.7478306  0.2348015

 Al 
  0.2539045  0.5051532  0.2393310

 Al 
  0.2539429  0.7651676  0.9841530

 Al 
  0.9864116  0.9876108  0.4907678

 Al 
  0.0255953  0.2546136  0.7463381

 Al 
  0.2335045  0.9952094  0.7328548

 Al 
  0.2456933  0.2558858  0.4817521

 Al 
  0.0260074  0.4999641  0.4959247

 Al 
  0.0217539  0.7438840  0.7489468

 Al 
  0.2476548  0.5021917  0.7800950

 Al 
  0.2478937  0.7398904  0.5092273

 Al 
  0.4915771  0.5215336  0.0013935

 Al 
  0.4882184  0.7561878  0.2686550

 Al 
  0.7632382  0.4979011  0.2695201

 Al 
  0.7705757  0.7364623  0.0119462

 Al 
  0.4991807  0.0068808  0.4973628

 Al 
  0.4831135  0.2420598  0.7596604

 Al 
  0.7318858  0.0049106  0.7648582

 Al 
  0.7421365  0.2477452  0.4894597

 Al 
  0.4831407  0.4972365  0.5241572

 Al 
  0.5036273  0.7598139  0.7500173

 Al 
  0.7530221  0.5007735  0.7360329

 Al 
  0.7672887  0.7476796  0.5094797

