32 
charge = 0 
 Al 
  0.9976202  0.9884771  0.9939458

 Al 
  0.9984431  0.2360836  0.2578548

 Al 
  0.2442924  0.9906589  0.2489716

 Al 
  0.2358113  0.2376046  0.9972786

 Al 
  0.4822583  0.0013440  0.0129994

 Al 
  0.5090429  0.2564328  0.2328461

 Al 
  0.7633991  0.9990929  0.2319068

 Al 
  0.7527610  0.2688444  0.9942367

 Al 
  0.9971808  0.4874276  0.9920610

 Al 
  0.0144213  0.7536916  0.2343164

 Al 
  0.2486325  0.5095775  0.2385216

 Al 
  0.2507821  0.7714457  0.9888978

 Al 
  0.9861900  0.9849401  0.4980855

 Al 
  0.0271298  0.2500285  0.7464296

 Al 
  0.2372543  0.9960348  0.7264096

 Al 
  0.2487463  0.2585120  0.4810195

 Al 
  0.0300406  0.5016905  0.5003428

 Al 
  0.0238515  0.7421625  0.7440919

 Al 
  0.2457502  0.4996003  0.7748775

 Al 
  0.2457391  0.7362445  0.5088486

 Al 
  0.4900958  0.5249208  0.0038748

 Al 
  0.4843176  0.7618187  0.2686810

 Al 
  0.7641961  0.5064737  0.2704396

 Al 
  0.7711314  0.7343535  0.0076902

 Al 
  0.4954569  0.0019974  0.4932132

 Al 
  0.4849215  0.2390575  0.7698765

 Al 
  0.7331085  0.0070442  0.7595193

 Al 
  0.7410722  0.2448654  0.4898805

 Al 
  0.4836481  0.4993441  0.5278155

 Al 
  0.4980112  0.7620415  0.7540134

 Al 
  0.7527523  0.4976400  0.7400364

 Al 
  0.7619412  0.7505520  0.5110193

