32 
charge = 0 
 Al 
  0.0000842  0.9893211  0.9930201

 Al 
  0.9990161  0.2346914  0.2586815

 Al 
  0.2447218  0.9906205  0.2494790

 Al 
  0.2361962  0.2376479  0.9961029

 Al 
  0.4858064  0.0000322  0.0118781

 Al 
  0.5099908  0.2551309  0.2314626

 Al 
  0.7640525  0.0002067  0.2304626

 Al 
  0.7532102  0.2672108  0.9946921

 Al 
  0.9942441  0.4875984  0.9940300

 Al 
  0.0121912  0.7550356  0.2347941

 Al 
  0.2470905  0.5104908  0.2381800

 Al 
  0.2497463  0.7727340  0.9907814

 Al 
  0.9866455  0.9846319  0.5004740

 Al 
  0.0264380  0.2483330  0.7459222

 Al 
  0.2389201  0.9966017  0.7246894

 Al 
  0.2501176  0.2586629  0.4810393

 Al 
  0.0301384  0.5018898  0.5016175

 Al 
  0.0231090  0.7417442  0.7430362

 Al 
  0.2457700  0.4987216  0.7726783

 Al 
  0.2456252  0.7358732  0.5081840

 Al 
  0.4902356  0.5255185  0.0048141

 Al 
  0.4838510  0.7628806  0.2681946

 Al 
  0.7642641  0.5091778  0.2704124

 Al 
  0.7705163  0.7338882  0.0059576

 Al 
  0.4942800  0.0007673  0.4922467

 Al 
  0.4855329  0.2385525  0.7725967

 Al 
  0.7340404  0.0075776  0.7578338

 Al 
  0.7408953  0.2439570  0.4905252

 Al 
  0.4842050  0.4998577  0.5283290

 Al 
  0.4964148  0.7626677  0.7551619

 Al 
  0.7527994  0.4966400  0.7414509

 Al 
  0.7598498  0.7513366  0.5112705

