32 
charge = 0 
 Al 
  0.0006856  0.9895871  0.9927491

 Al 
  0.9991795  0.2343980  0.2588449

 Al 
  0.2448084  0.9906787  0.2496386

 Al 
  0.2363200  0.2376689  0.9958814

 Al 
  0.4867321  0.9996993  0.0115749

 Al 
  0.5101777  0.2548339  0.2311593

 Al 
  0.7641491  0.0004567  0.2301309

 Al 
  0.7533117  0.2667665  0.9948072

 Al 
  0.9935622  0.4876689  0.9945622

 Al 
  0.0116269  0.7553265  0.2349673

 Al 
  0.2467205  0.5106752  0.2380872

 Al 
  0.2494914  0.7729840  0.9912653

 Al 
  0.9867989  0.9846035  0.5010631

 Al 
  0.0261633  0.2478961  0.7457527

 Al 
  0.2393706  0.9967625  0.7242971

 Al 
  0.2504913  0.2586431  0.4810653

 Al 
  0.0300517  0.5019021  0.5019170

 Al 
  0.0228083  0.7416564  0.7428283

 Al 
  0.2458195  0.4985038  0.7721091

 Al 
  0.2456475  0.7358547  0.5079711

 Al 
  0.4903148  0.5256287  0.0050592

 Al 
  0.4838028  0.7630736  0.2680276

 Al 
  0.7642604  0.5098349  0.2703827

 Al 
  0.7702935  0.7338077  0.0054923

 Al 
  0.4939966  0.0004987  0.4920425

 Al 
  0.4856925  0.2384672  0.7732154

 Al 
  0.7343176  0.0076927  0.7574179

 Al 
  0.7408643  0.2437342  0.4907245

 Al 
  0.4843795  0.4999691  0.5284033

 Al 
  0.4960398  0.7628150  0.7554354

 Al 
  0.7528216  0.4963937  0.7418086

 Al 
  0.7592978  0.7515210  0.5113200

