32 
charge = 0 
 Al 
  0.9982476  0.9886553  0.9937379

 Al 
  0.9985756  0.2357000  0.2580887

 Al 
  0.2444136  0.9906094  0.2490780

 Al 
  0.2358918  0.2376095  0.9969395

 Al 
  0.4831271  0.0010160  0.0127320

 Al 
  0.5093114  0.2560863  0.2324724

 Al 
  0.7636045  0.9993899  0.2315257

 Al 
  0.7528810  0.2684545  0.9943518

 Al 
  0.9964135  0.4874536  0.9925301

 Al 
  0.0138644  0.7540580  0.2344030

 Al 
  0.2482352  0.5098349  0.2384399

 Al 
  0.2505198  0.7718133  0.9893619

 Al 
  0.9862804  0.9848324  0.4986907

 Al 
  0.0270172  0.2496102  0.7463294

 Al 
  0.2376528  0.9961648  0.7259542

 Al 
  0.2490731  0.2585850  0.4810121

 Al 
  0.0301309  0.5017623  0.5006745

 Al 
  0.0237352  0.7420487  0.7437936

 Al 
  0.2457267  0.4993787  0.7743391

 Al 
  0.2456797  0.7361071  0.5087100

 Al 
  0.4901032  0.5250953  0.0041050

 Al 
  0.4841580  0.7621281  0.2685857

 Al 
  0.7642258  0.5071655  0.2704482

 Al 
  0.7710175  0.7342174  0.0072719

 Al 
  0.4951549  0.0016645  0.4929471

 Al 
  0.4850725  0.2389053  0.7705968

 Al 
  0.7333152  0.0071890  0.7590911

 Al 
  0.7410202  0.2446339  0.4900191

 Al 
  0.4837669  0.4994827  0.5279776

 Al 
  0.4975954  0.7622048  0.7543104

 Al 
  0.7527573  0.4973863  0.7403891

 Al 
  0.7614326  0.7507574  0.5110910

