32 
charge = 0 
 Al 
  0.0072707  0.9941971  0.9884003

 Al 
  0.0016831  0.2323746  0.2597495

 Al 
  0.2453257  0.9932540  0.2522784

 Al 
  0.2384573  0.2382382  0.9951648

 Al 
  0.4987587  0.9953554  0.0074130

 Al 
  0.5109846  0.2520284  0.2286916

 Al 
  0.7635810  0.0026014  0.2269553

 Al 
  0.7544181  0.2603473  0.9962180

 Al 
  0.9871677  0.4891268  0.0017771

 Al 
  0.0045938  0.7578263  0.2385117

 Al 
  0.2426439  0.5116838  0.2367692

 Al 
  0.2466710  0.7739085  0.9971796

 Al 
  0.9895686  0.9855601  0.5077323

 Al 
  0.0201636  0.2424348  0.7426291

 Al 
  0.2456376  0.9990595  0.7208282

 Al 
  0.2557584  0.2569885  0.4819588

 Al 
  0.0259801  0.5009022  0.5049626

 Al 
  0.0163445  0.7410301  0.7420784

 Al 
  0.2473219  0.4959853  0.7651218

 Al 
  0.2471536  0.7375563  0.5041706

 Al 
  0.4922516  0.5259418  0.0082001

 Al 
  0.4851307  0.7633731  0.2646874

 Al 
  0.7635228  0.5170004  0.2695114

 Al 
  0.7658012  0.7342557  0.9989023

 Al 
  0.4911440  0.9984110  0.4906465

 Al 
  0.4879610  0.2386837  0.7788525

 Al 
  0.7389275  0.0084266  0.7525073

 Al 
  0.7408680  0.2411960  0.4940535

 Al 
  0.4876169  0.5008960  0.5278452

 Al 
  0.4921823  0.7642740  0.7584117

 Al 
  0.7533006  0.4935436  0.7460943

 Al 
  0.7518093  0.7535394  0.5116999

