32 
charge = 0 
 Al 
  0.0030741  0.9908903  0.9914707

 Al 
  0.9999282  0.2334117  0.2593572

 Al 
  0.2450807  0.9911923  0.2504109

 Al 
  0.2369252  0.2377964  0.9952626

 Al 
  0.4906688  0.9982971  0.0102470

 Al 
  0.5107396  0.2537337  0.2300827

 Al 
  0.7642815  0.0013588  0.2288859

 Al 
  0.7537015  0.2647951  0.9952812

 Al 
  0.9910042  0.4880550  0.9968801

 Al 
  0.0092768  0.7563574  0.2358955

 Al 
  0.2452626  0.5112494  0.2376714

 Al 
  0.2484753  0.7737117  0.9932788

 Al 
  0.9875699  0.9846790  0.5034305

 Al 
  0.0246386  0.2460646  0.7448876

 Al 
  0.2413457  0.9974816  0.7228565

 Al 
  0.2521410  0.2583412  0.4812509

 Al 
  0.0292572  0.5017846  0.5030692

 Al 
  0.0211413  0.7413569  0.7422232

 Al 
  0.2461735  0.4976226  0.7697329

 Al 
  0.2459371  0.7360638  0.5069105

 Al 
  0.4907925  0.5259306  0.0060987

 Al 
  0.4838857  0.7635723  0.2671539

 Al 
  0.7641540  0.5124313  0.2701772

 Al 
  0.7691154  0.7336567  0.0034441

 Al 
  0.4928989  0.9995619  0.4913606

 Al 
  0.4863868  0.2382951  0.7755012

 Al 
  0.7356430  0.0080763  0.7557274

 Al 
  0.7407925  0.2428382  0.4916861

 Al 
  0.4852507  0.5003651  0.5284949

 Al 
  0.4945968  0.7633805  0.7565145

 Al 
  0.7529479  0.4954025  0.7432751

 Al 
  0.7569143  0.7522412  0.5114846

