32 
charge = 0 
 Al 
  0.0048710  0.9921415  0.9902901

 Al 
  0.0006076  0.2328598  0.2596022

 Al 
  0.2452181  0.9918903  0.2511336

 Al 
  0.2375056  0.2379461  0.9950683

 Al 
  0.4939322  0.9971276  0.0091159

 Al 
  0.5109636  0.2529726  0.2294082

 Al 
  0.7641243  0.0019442  0.2280197

 Al 
  0.7539949  0.2630612  0.9956623

 Al 
  0.9892555  0.4884535  0.9988429

 Al 
  0.0073722  0.7570269  0.2368546

 Al 
  0.2441587  0.5115229  0.2373125

 Al 
  0.2477056  0.7739703  0.9948876

 Al 
  0.9883236  0.9849389  0.5052485

 Al 
  0.0230125  0.2445770  0.7440362

 Al 
  0.2430449  0.9981078  0.7219036

 Al 
  0.2535691  0.2578882  0.4814873

 Al 
  0.0281583  0.5015160  0.5038971

 Al 
  0.0193827  0.7411886  0.7420115

 Al 
  0.2465918  0.4969395  0.7678271

 Al 
  0.2463541  0.7365279  0.5058784

 Al 
  0.4913222  0.5260185  0.0069539

 Al 
  0.4842421  0.7636565  0.2662541

 Al 
  0.7639647  0.5143830  0.2699384

 Al 
  0.7678989  0.7337595  0.0016633

 Al 
  0.4921130  0.9989926  0.4909819

 Al 
  0.4869920  0.2383459  0.7770383

 Al 
  0.7368893  0.0082818  0.7543971

 Al 
  0.7407938  0.2421489  0.4925920

 Al 
  0.4861183  0.5006163  0.5283476

 Al 
  0.4935498  0.7637827  0.7573239

 Al 
  0.7530791  0.4946302  0.7444384

 Al 
  0.7548884  0.7527833  0.5115836

