32 
charge = 0 
 Al 
  0.0018811  0.9901886  0.9921501

 Al 
  0.9995334  0.2338684  0.2591295

 Al 
  0.2449582  0.9908779  0.2499988

 Al 
  0.2365997  0.2377234  0.9955200

 Al 
  0.4886478  0.9990149  0.0109351

 Al 
  0.5104958  0.2542696  0.2305938

 Al 
  0.7642654  0.0009257  0.2294936

 Al 
  0.7535097  0.2658235  0.9950398

 Al 
  0.9922491  0.4878409  0.9956809

 Al 
  0.0104735  0.7558660  0.2353831

 Al 
  0.2459903  0.5109933  0.2378880

 Al 
  0.2489840  0.7734023  0.9922553

 Al 
  0.9871516  0.9846035  0.5022425

 Al 
  0.0254888  0.2469989  0.7453567

 Al 
  0.2403198  0.9971066  0.7235521

 Al 
  0.2512834  0.2585355  0.4811408

 Al 
  0.0297461  0.5018761  0.5025011

 Al 
  0.0220695  0.7414955  0.7424806

 Al 
  0.2459668  0.4980669  0.7709420

 Al 
  0.2457527  0.7359017  0.5074835

 Al 
  0.4905215  0.5258069  0.0055653

 Al 
  0.4837892  0.7633781  0.2676340

 Al 
  0.7642258  0.5111356  0.2702960

 Al 
  0.7697651  0.7336964  0.0045097

 Al 
  0.4934409  0.0000037  0.4916749

 Al 
  0.4860267  0.2383483  0.7743948

 Al 
  0.7349364  0.0078994  0.7565801

 Al 
  0.7408185  0.2432887  0.4911725

 Al 
  0.4847792  0.5001770  0.5284899

 Al 
  0.4953084  0.7631021  0.7559774

 Al 
  0.7528773  0.4959012  0.7425313

 Al 
  0.7581456  0.7518836  0.5114079

