32 
charge = 0 
 Al 
  0.0036718  0.9912801  0.9910995

 Al 
  0.0001436  0.2332100  0.2594525

 Al 
  0.2451314  0.9913940  0.2506386

 Al 
  0.2371058  0.2378409  0.9951723

 Al 
  0.4917232  0.9979209  0.0098832

 Al 
  0.5108324  0.2534751  0.2298451

 Al 
  0.7642542  0.0015618  0.2285914

 Al 
  0.7537981  0.2642443  0.9954049

 Al 
  0.9904052  0.4881776  0.9975113

 Al 
  0.0086580  0.7565888  0.2361888

 Al 
  0.2448975  0.5113559  0.2375563

 Al 
  0.2482204  0.7738256  0.9938048

 Al 
  0.9878038  0.9847458  0.5040320

 Al 
  0.0241436  0.2455807  0.7446228

 Al 
  0.2418890  0.9976820  0.7225261

 Al 
  0.2525976  0.2582125  0.4813202

 Al 
  0.0289404  0.5017128  0.5033476

 Al 
  0.0206054  0.7412962  0.7421291

 Al 
  0.2462997  0.4973974  0.7691104

 Al 
  0.2460571  0.7361888  0.5065900

 Al 
  0.4909534  0.5259740  0.0063759

 Al 
  0.4839760  0.7636280  0.2668779

 Al 
  0.7641033  0.5130810  0.2701054

 Al 
  0.7687429  0.7336679  0.0028773

 Al 
  0.4926328  0.9993602  0.4912220

 Al 
  0.4865786  0.2382939  0.7760297

 Al 
  0.7360329  0.0081531  0.7552906

 Al 
  0.7407876  0.2426105  0.4919695

 Al 
  0.4855180  0.5004529  0.5284677

 Al 
  0.4942453  0.7635179  0.7567831

 Al 
  0.7529875  0.4951488  0.7436550

 Al 
  0.7562645  0.7524207  0.5115192

