32 
charge = 0 
 Al 
  0.0024776  0.9905265  0.9918209

 Al 
  0.9997253  0.2336320  0.2592508

 Al 
  0.2450225  0.9910202  0.2501980

 Al 
  0.2367556  0.2377568  0.9953777

 Al 
  0.4896441  0.9986610  0.0105972

 Al 
  0.5106269  0.2539986  0.2303314

 Al 
  0.7642852  0.0011460  0.2291854

 Al 
  0.7536063  0.2653210  0.9951599

 Al 
  0.9916192  0.4879437  0.9962700

 Al 
  0.0098807  0.7561173  0.2356269

 Al 
  0.2456265  0.5111282  0.2377828

 Al 
  0.2487303  0.7735706  0.9927627

 Al 
  0.9873521  0.9846319  0.5028353

 Al 
  0.0250854  0.2465373  0.7451314

 Al 
  0.2408222  0.9972897  0.7231981

 Al 
  0.2517029  0.2584501  0.4811915

 Al 
  0.0295245  0.5018390  0.5027870

 Al 
  0.0216289  0.7414237  0.7423407

 Al 
  0.2460633  0.4978454  0.7703431

 Al 
  0.2458356  0.7359685  0.5072076

 Al 
  0.4906490  0.5258750  0.0058289

 Al 
  0.4838238  0.7634882  0.2674051

 Al 
  0.7641961  0.5117841  0.2702416

 Al 
  0.7694557  0.7336667  0.0039874

 Al 
  0.4931687  0.9997760  0.4915116

 Al 
  0.4862024  0.2383125  0.7749567

 Al 
  0.7352780  0.0079909  0.7561569

 Al 
  0.7408037  0.2430647  0.4914200

 Al 
  0.4850057  0.5002735  0.5285023

 Al 
  0.4949507  0.7632432  0.7562460

 Al 
  0.7529107  0.4956524  0.7429001

 Al 
  0.7575405  0.7520630  0.5114475

