32 
charge = 0 
 Al 
  0.0060740  0.9931142  0.9893879

 Al 
  0.0011225  0.2325801  0.2597013

 Al 
  0.2452812  0.9925103  0.2516818

 Al 
  0.2379560  0.2380786  0.9950658

 Al 
  0.4962799  0.9962737  0.0082904

 Al 
  0.5110143  0.2524900  0.2290233

 Al 
  0.7639003  0.0022907  0.2274739

 Al 
  0.7541990  0.2617630  0.9959334

 Al 
  0.9881726  0.4887704  0.0002673

 Al 
  0.0060170  0.7574378  0.2376293

 Al 
  0.2434075  0.5116331  0.2370489

 Al 
  0.2471883  0.7739988  0.9960138

 Al 
  0.9889127  0.9852111  0.5064848

 Al 
  0.0216858  0.2435263  0.7433704

 Al 
  0.2442948  0.9985669  0.7213343

 Al 
  0.2546235  0.2574786  0.4816989

 Al 
  0.0271732  0.5012450  0.5044354

 Al 
  0.0179607  0.7411007  0.7419942

 Al 
  0.2469346  0.4964680  0.7664955

 Al 
  0.2467217  0.7369846  0.5050715

 Al 
  0.4917554  0.5260086  0.0075627

 Al 
  0.4846270  0.7635723  0.2655240

 Al 
  0.7637741  0.5156923  0.2697404

 Al 
  0.7669175  0.7339513  0.0003391

 Al 
  0.4916130  0.9986758  0.4907888

 Al 
  0.4874511  0.2384746  0.7779825

 Al 
  0.7378546  0.0083746  0.7534677

 Al 
  0.7408198  0.2416762  0.4932875

 Al 
  0.4868162  0.5007636  0.5281422

 Al 
  0.4928617  0.7640377  0.7578672

 Al 
  0.7531842  0.4940956  0.7452515

 Al 
  0.7534045  0.7531558  0.5116442

