32 
charge = 0 
 Al 
  0.0084451  0.9953789  0.9873373

 Al 
  0.0022821  0.2322459  0.2597446

 Al 
  0.2453517  0.9941117  0.2529120

 Al 
  0.2390043  0.2384300  0.9953591

 Al 
  0.5013452  0.9943778  0.0064910

 Al 
  0.5108707  0.2515890  0.2284206

 Al 
  0.7631763  0.0028699  0.2264752

 Al 
  0.7546520  0.2588226  0.9965138

 Al 
  0.9862556  0.4895166  0.0033563

 Al 
  0.0031137  0.7581976  0.2394931

 Al 
  0.2418717  0.5116764  0.2364759

 Al 
  0.2461598  0.7736956  0.9983738

 Al 
  0.9902839  0.9859834  0.5089736

 Al 
  0.0184607  0.2413148  0.7418247

 Al 
  0.2470596  0.9995792  0.7203987

 Al 
  0.2569613  0.2564267  0.4822694

 Al 
  0.0245904  0.5004925  0.5054737

 Al 
  0.0145500  0.7409794  0.7422640

 Al 
  0.2477464  0.4954953  0.7637209

 Al 
  0.2476375  0.7382333  0.5031855

 Al 
  0.4928048  0.5258118  0.0088572

 Al 
  0.4857519  0.7630612  0.2637468

 Al 
  0.7632073  0.5182949  0.2692565

 Al 
  0.7645562  0.7346790  0.9973628

 Al 
  0.4907195  0.9982006  0.4905512

 Al 
  0.4885228  0.2389770  0.7796384

 Al 
  0.7401007  0.0084340  0.7515210

 Al 
  0.7409386  0.2407146  0.4948814

 Al 
  0.4885216  0.5010148  0.5274590

 Al 
  0.4915165  0.7644857  0.7589488

 Al 
  0.7534243  0.4929768  0.7469581

 Al 
  0.7501176  0.7539330  0.5117531

