32 
charge = 0 
 Al 
  0.0090156  0.9960014  0.9867841

 Al 
  0.0025915  0.2322113  0.2597223

 Al 
  0.2453591  0.9945782  0.2532375

 Al 
  0.2392926  0.2385365  0.9954916

 Al 
  0.5026657  0.9938716  0.0060183

 Al 
  0.5107829  0.2513811  0.2283105

 Al 
  0.7629449  0.0029862  0.2262537

 Al 
  0.7547758  0.2580256  0.9966648

 Al 
  0.9858386  0.4897233  0.0041644

 Al 
  0.0023576  0.7583771  0.2400178

 Al 
  0.2414868  0.5116517  0.2363274

 Al 
  0.2459099  0.7735422  0.9989765

 Al 
  0.9906601  0.9862185  0.5095837

 Al 
  0.0175499  0.2407517  0.7414027

 Al 
  0.2477934  0.9998478  0.7202168

 Al 
  0.2575838  0.2561222  0.4824439

 Al 
  0.0238280  0.5002648  0.5057200

 Al 
  0.0135971  0.7409596  0.7423952

 Al 
  0.2479679  0.4952502  0.7630167

 Al 
  0.2478937  0.7386070  0.5026657

 Al 
  0.4931006  0.5257240  0.0091889

 Al 
  0.4861022  0.7628657  0.2632432

 Al 
  0.7630241  0.5189285  0.2691203

 Al 
  0.7638941  0.7349364  0.9965621

 Al 
  0.4905289  0.9981164  0.4905215

 Al 
  0.4888223  0.2391552  0.7799948

 Al 
  0.7407195  0.0084191  0.7510235

 Al 
  0.7409819  0.2404745  0.4953146

 Al 
  0.4890092  0.5010693  0.5272338

 Al 
  0.4911923  0.7645785  0.7592112

 Al 
  0.7534887  0.4926910  0.7473937

 Al 
  0.7492414  0.7541335  0.5117791

