32 
charge = 0 
 Al 
  0.0142716  0.0044948  0.9797423

 Al 
  0.0063190  0.2335219  0.2584290

 Al 
  0.2453418  0.0016026  0.2569081

 Al 
  0.2434026  0.2406193  0.9986461

 Al 
  0.5186464  0.9872432  0.0001126

 Al 
  0.5080949  0.2496003  0.2285926

 Al 
  0.7590429  0.0032672  0.2252747

 Al 
  0.7568536  0.2471338  0.9985681

 Al 
  0.9834266  0.4927009  0.0140278

 Al 
  0.9929236  0.7604129  0.2476264

 Al 
  0.2372358  0.5101839  0.2347545

 Al 
  0.2434273  0.7692094  0.0060430

 Al 
  0.9958307  0.9899980  0.5153557

 Al 
  0.0042288  0.2346827  0.7359636

 Al 
  0.2571630  0.0033154  0.7206958

 Al 
  0.2656230  0.2518601  0.4858151

 Al 
  0.0113336  0.4967056  0.5080169

 Al 
  0.9999938  0.7409547  0.7459148

 Al 
  0.2506930  0.4925870  0.7549750

 Al 
  0.2511571  0.7443580  0.4956314

 Al 
  0.4974568  0.5230694  0.0128682

 Al 
  0.4923420  0.7585961  0.2556272

 Al 
  0.7589439  0.5250532  0.2671155

 Al 
  0.7543364  0.7407047  0.9858967

 Al 
  0.4902455  0.9982946  0.4909782

 Al 
  0.4936822  0.2430808  0.7816977

 Al 
  0.7494406  0.0070417  0.7452242

 Al 
  0.7419026  0.2380377  0.5009158

 Al 
  0.4968281  0.5014888  0.5226523

 Al 
  0.4879177  0.7643669  0.7614004

 Al 
  0.7541743  0.4891825  0.7525259

 Al 
  0.7377209  0.7566309  0.5120081

