32 
charge = 0 
 Al 
  0.0136627  0.0029367  0.9809502

 Al 
  0.0057361  0.2330157  0.2587978

 Al 
  0.2453332  0.0002252  0.2563858

 Al 
  0.2425882  0.2401156  0.9978937

 Al 
  0.5159868  0.9884127  0.0011460

 Al 
  0.5087978  0.2497909  0.2282659

 Al 
  0.7598436  0.0034058  0.2250916

 Al 
  0.7563796  0.2491795  0.9982290

 Al 
  0.9834290  0.4921006  0.0123670

 Al 
  0.9945832  0.7600465  0.2461400

 Al 
  0.2378830  0.5106245  0.2349426

 Al 
  0.2437713  0.7703443  0.0048809

 Al 
  0.9948555  0.9892431  0.5146998

 Al 
  0.0068313  0.2355304  0.7369004

 Al 
  0.2555072  0.0026905  0.7201054

 Al 
  0.2641775  0.2526273  0.4850020

 Al 
  0.0139981  0.4974160  0.5077397

 Al 
  0.0026100  0.7409299  0.7450151

 Al 
  0.2502537  0.4929731  0.7562732

 Al 
  0.2506175  0.7432268  0.4969135

 Al 
  0.4965843  0.5238231  0.0123212

 Al 
  0.4909584  0.7596010  0.2571618

 Al 
  0.7600119  0.5242847  0.2675152

 Al 
  0.7561730  0.7392839  0.9878397

 Al 
  0.4898941  0.9980781  0.4907925

 Al 
  0.4926118  0.2421217  0.7818536

 Al 
  0.7477724  0.0074934  0.7461697

 Al 
  0.7416823  0.2383570  0.4999443

 Al 
  0.4951648  0.5014455  0.5237587

 Al 
  0.4883929  0.7646899  0.7612433

 Al 
  0.7540840  0.4897963  0.7516707

 Al 
  0.7398235  0.7561928  0.5119883

