32 
charge = 0 
 Al 
  0.0144176  0.0049688  0.9793859

 Al 
  0.0064811  0.2337100  0.2583016

 Al 
  0.2453505  0.0020308  0.2570442

 Al 
  0.2436649  0.2407925  0.9988936

 Al 
  0.5194248  0.9868967  0.9997983

 Al 
  0.5078573  0.2495570  0.2287275

 Al 
  0.7587904  0.0032016  0.2253861

 Al 
  0.7570133  0.2465002  0.9986721

 Al 
  0.9834736  0.4928964  0.0145178

 Al 
  0.9924187  0.7605304  0.2480942

 Al 
  0.2370539  0.5100267  0.2347149

 Al 
  0.2433320  0.7688209  0.0063846

 Al 
  0.9961351  0.9902319  0.5155017

 Al 
  0.0034120  0.2344624  0.7356876

 Al 
  0.2576642  0.0035085  0.7209470

 Al 
  0.2660648  0.2516323  0.4860935

 Al 
  0.0104636  0.4964816  0.5080850

 Al 
  0.9991770  0.7409646  0.7462192

 Al 
  0.2508180  0.4924830  0.7545926

 Al 
  0.2513131  0.7447119  0.4952416

 Al 
  0.4977365  0.5227996  0.0130192

 Al 
  0.4927974  0.7582632  0.2551384

 Al 
  0.7585664  0.5252450  0.2669868

 Al 
  0.7537659  0.7411836  0.9853039

 Al 
  0.4904089  0.9983825  0.4910438

 Al 
  0.4940387  0.2434038  0.7815913

 Al 
  0.7499592  0.0068747  0.7449458

 Al 
  0.7419744  0.2379585  0.5012029

 Al 
  0.4973714  0.5014999  0.5222749

 Al 
  0.4877815  0.7642233  0.7614116

 Al 
  0.7541966  0.4889944  0.7527808

 Al 
  0.7370761  0.7567645  0.5120105

