32 
charge = 0 
 Al 
  0.0146329  0.0058500  0.9787374

 Al 
  0.0067571  0.2341171  0.2580466

 Al 
  0.2453765  0.0028476  0.2572620

 Al 
  0.2441785  0.2411477  0.9993812

 Al 
  0.5208331  0.9862705  0.9992104

 Al 
  0.5073783  0.2494951  0.2290369

 Al 
  0.7583053  0.0030444  0.2256844

 Al 
  0.7573338  0.2452960  0.9988713

 Al 
  0.9836320  0.4932813  0.0154114

 Al 
  0.9914744  0.7607606  0.2489951

 Al 
  0.2367383  0.5096963  0.2346728

 Al 
  0.2431637  0.7680300  0.0070083

 Al 
  0.9967205  0.9906737  0.5156898

 Al 
  0.0018526  0.2341134  0.7351864

 Al 
  0.2585986  0.0038723  0.7215299

 Al 
  0.2668940  0.2512153  0.4866653

 Al 
  0.0087483  0.4960522  0.5081877

 Al 
  0.9976152  0.7409868  0.7468356

 Al 
  0.2510371  0.4923073  0.7538958

 Al 
  0.2515890  0.7453876  0.4945114

 Al 
  0.4982810  0.5222254  0.0132766

 Al 
  0.4937033  0.7576023  0.2541904

 Al 
  0.7577768  0.5255396  0.2667343

 Al 
  0.7526830  0.7421464  0.9841988

 Al 
  0.4908074  0.9985793  0.4911836

 Al 
  0.4947552  0.2440523  0.7812992

 Al 
  0.7509455  0.0065170  0.7444396

 Al 
  0.7421192  0.2378372  0.5017214

 Al 
  0.4984431  0.5015135  0.5215064

 Al 
  0.4875390  0.7638830  0.7613720

 Al 
  0.7542288  0.4886441  0.7532498

 Al 
  0.7358584  0.7570108  0.5120068

