32 
charge = 0 
 Al 
  0.0140983  0.0039986  0.9801223

 Al 
  0.0061408  0.2333424  0.2585540

 Al 
  0.2453369  0.0011584  0.2567534

 Al 
  0.2431365  0.2404497  0.9983974

 Al 
  0.5178147  0.9876108  0.0004406

 Al 
  0.5083313  0.2496535  0.2284701

 Al 
  0.7593028  0.0033229  0.2251893

 Al 
  0.7566952  0.2477922  0.9984592

 Al 
  0.9834030  0.4925041  0.0135068

 Al 
  0.9934521  0.7602940  0.2471449

 Al 
  0.2374338  0.5103361  0.2348052

 Al 
  0.2435325  0.7695931  0.0056792

 Al 
  0.9955163  0.9897542  0.5151738

 Al 
  0.0050703  0.2349339  0.7362581

 Al 
  0.2566370  0.0031149  0.7204718

 Al 
  0.2651614  0.2521026  0.4855403

 Al 
  0.0122110  0.4969358  0.5079365

 Al 
  0.0008378  0.7409448  0.7456116

 Al 
  0.2505581  0.4927033  0.7553809

 Al 
  0.2509900  0.7439929  0.4960398

 Al 
  0.4971722  0.5233305  0.0127011

 Al 
  0.4918828  0.7589303  0.2561272

 Al 
  0.7593102  0.5248305  0.2672454

 Al 
  0.7549267  0.7402282  0.9865155

 Al 
  0.4901045  0.9982142  0.4909138

 Al 
  0.4933258  0.2427590  0.7817781

 Al 
  0.7489023  0.0072001  0.7455200

 Al 
  0.7418296  0.2381318  0.5006101

 Al 
  0.4962799  0.5014764  0.5230249

 Al 
  0.4880637  0.7644919  0.7613682

 Al 
  0.7541483  0.4893780  0.7522561

 Al 
  0.7383941  0.7564923  0.5120044

