32 
charge = 0 
 Al 
  0.0147963  0.0073734  0.9776843

 Al 
  0.0071234  0.2350540  0.2575281

 Al 
  0.2454742  0.0043315  0.2574848

 Al 
  0.2451983  0.2419101  0.0003242

 Al 
  0.5231041  0.9852780  0.9981622

 Al 
  0.5064106  0.2494604  0.2298055

 Al 
  0.7573994  0.0026298  0.2265952

 Al 
  0.7579872  0.2431055  0.9992451

 Al 
  0.9841703  0.4940560  0.0168903

 Al 
  0.9898000  0.7612210  0.2506868

 Al 
  0.2362816  0.5089661  0.2347446

 Al 
  0.2428964  0.7663754  0.0080479

 Al 
  0.9978244  0.9914571  0.5156675

 Al 
  0.9989790  0.2337743  0.7343708

 Al 
  0.2602371  0.0045394  0.7230249

 Al 
  0.2683691  0.2505297  0.4878954

 Al 
  0.0053463  0.4952502  0.5082756

 Al 
  0.9947366  0.7410400  0.7480991

 Al 
  0.2513601  0.4920796  0.7527202

 Al 
  0.2520197  0.7466388  0.4932256

 Al 
  0.4993441  0.5209235  0.0136256

 Al 
  0.4955163  0.7562955  0.2523848

 Al 
  0.7560282  0.5257933  0.2662368

 Al 
  0.7507227  0.7441092  0.9822682

 Al 
  0.4918841  0.9990545  0.4914843

 Al 
  0.4962329  0.2453765  0.7804156

 Al 
  0.7527325  0.0056928  0.7435956

 Al 
  0.7424001  0.2377432  0.5025580

 Al 
  0.5005693  0.5015135  0.5198839

 Al 
  0.4871454  0.7629684  0.7610403

 Al 
  0.7542387  0.4880179  0.7540592

 Al 
  0.7336704  0.7574415  0.5119709

