32 
charge = 0 
 Al 
  0.0146565  0.0086258  0.9769232

 Al 
  0.0072521  0.2361863  0.2569947

 Al 
  0.2456562  0.0056643  0.2574303

 Al 
  0.2462675  0.2427726  0.0012376

 Al 
  0.5247364  0.9846357  0.9972279

 Al 
  0.5054168  0.2495235  0.2307980

 Al 
  0.7565368  0.0020865  0.2279776

 Al 
  0.7586753  0.2411143  0.9996164

 Al 
  0.9849834  0.4948827  0.0180239

 Al 
  0.9883273  0.7617049  0.2523081

 Al 
  0.2360391  0.5081172  0.2350614

 Al 
  0.2426823  0.7645797  0.0088708

 Al 
  0.9989159  0.9921303  0.5151267

 Al 
  0.9963381  0.2339104  0.7337706

 Al 
  0.2616479  0.0051594  0.7250136

 Al 
  0.2696636  0.2500248  0.4893050

 Al 
  0.0018440  0.4944953  0.5082199

 Al 
  0.9920709  0.7411056  0.7494282

 Al 
  0.2515408  0.4919992  0.7517524

 Al 
  0.2523068  0.7478132  0.4921105

 Al 
  0.5004245  0.5193394  0.0137642

 Al 
  0.4973949  0.7549849  0.2506250

 Al 
  0.7539800  0.5256163  0.2657059

 Al 
  0.7489666  0.7461512  0.9806495

 Al 
  0.4933642  0.9996399  0.4918185

 Al 
  0.4978405  0.2467700  0.7791112

 Al 
  0.7543278  0.0046928  0.7429162

 Al 
  0.7426749  0.2378447  0.5031459

 Al 
  0.5027511  0.5014727  0.5180758

 Al 
  0.4868336  0.7616913  0.7603497

 Al 
  0.7541669  0.4874635  0.7547560

 Al 
  0.7317187  0.7578028  0.5118880

