32 
charge = 0 
 Al 
  0.0145785  0.0089018  0.9767784

 Al 
  0.0072459  0.2365081  0.2568573

 Al 
  0.2457180  0.0059811  0.2573722

 Al 
  0.2465522  0.2430102  0.0014628

 Al 
  0.5250520  0.9845317  0.9970039

 Al 
  0.5051606  0.2495532  0.2310863

 Al 
  0.7563227  0.0019294  0.2284082

 Al 
  0.7588548  0.2406366  0.9997141

 Al 
  0.9852285  0.4951054  0.0182615

 Al 
  0.9879808  0.7618323  0.2527127

 Al 
  0.2360118  0.5078808  0.2351851

 Al 
  0.2426328  0.7640995  0.0090503

 Al 
  0.9991968  0.9922850  0.5149077

 Al 
  0.9957019  0.2340231  0.7336518

 Al 
  0.2619747  0.0053129  0.7256015

 Al 
  0.2699656  0.2499245  0.4896973

 Al 
  0.0009319  0.4943097  0.5081840

 Al 
  0.9914237  0.7411230  0.7497735

 Al 
  0.2515643  0.4920004  0.7515333

 Al 
  0.2523588  0.7481016  0.4918494

 Al 
  0.5007066  0.5188864  0.0137654

 Al 
  0.4978850  0.7546520  0.2501807

 Al 
  0.7534082  0.5255025  0.2655623

 Al 
  0.7485508  0.7466821  0.9802869

 Al 
  0.4938035  0.9998069  0.4919076

 Al 
  0.4982736  0.2471363  0.7787114

 Al 
  0.7547040  0.0044082  0.7427664

 Al 
  0.7427429  0.2379016  0.5032548

 Al 
  0.5033167  0.5014541  0.5175833

 Al 
  0.4867643  0.7613051  0.7601146

 Al 
  0.7541335  0.4873323  0.7549193

 Al 
  0.7312559  0.7578845  0.5118583

