32 
charge = 0 
 Al 
  0.0144832  0.0091642  0.9766497

 Al 
  0.0072237  0.2368459  0.2567187

 Al 
  0.2457873  0.0062918  0.2572942

 Al 
  0.2468467  0.2432578  0.0016868

 Al 
  0.5253304  0.9844537  0.9967823

 Al 
  0.5049020  0.2495867  0.2313945

 Al 
  0.7561061  0.0017635  0.2288760

 Al 
  0.7590379  0.2401651  0.9998144

 Al 
  0.9854908  0.4953356  0.0184818

 Al 
  0.9876405  0.7619635  0.2531187

 Al 
  0.2359982  0.5076345  0.2353299

 Al 
  0.2425845  0.7636045  0.0092198

 Al 
  0.9994839  0.9924348  0.5146552

 Al 
  0.9950720  0.2341679  0.7335441

 Al 
  0.2622939  0.0054651  0.7262289

 Al 
  0.2702614  0.2498342  0.4901082

 Al 
  0.9999975  0.4941253  0.5081394

 Al 
  0.9907802  0.7411428  0.7501262

 Al 
  0.2515779  0.4920115  0.7513192

 Al 
  0.2524033  0.7483912  0.4915957

 Al 
  0.5009938  0.5184050  0.0137518

 Al 
  0.4983850  0.7543166  0.2497327

 Al 
  0.7528105  0.5253589  0.2654126

 Al 
  0.7481412  0.7472217  0.9799403

 Al 
  0.4942750  0.9999814  0.4919992

 Al 
  0.4987241  0.2475113  0.7782808

 Al 
  0.7550715  0.0041099  0.7426217

 Al 
  0.7428110  0.2379721  0.5033488

 Al 
  0.5038934  0.5014319  0.5170709

 Al 
  0.4866974  0.7608881  0.7598535

 Al 
  0.7540939  0.4872036  0.7550802

 Al 
  0.7308017  0.7579625  0.5118249

