32 
charge = 0 
 Al 
  0.0147060  0.0062596  0.9784454

 Al 
  0.0068709  0.2343349  0.2579179

 Al 
  0.2453938  0.0032362  0.2573437

 Al 
  0.2444334  0.2413309  0.9996201

 Al 
  0.5214655  0.9859896  0.9989345

 Al 
  0.5071383  0.2494765  0.2292090

 Al 
  0.7580714  0.0029528  0.2258712

 Al 
  0.7574947  0.2447243  0.9989666

 Al 
  0.9837397  0.4934731  0.0158173

 Al 
  0.9910314  0.7608757  0.2494295

 Al 
  0.2366021  0.5095230  0.2346703

 Al 
  0.2430895  0.7676254  0.0072930

 Al 
  0.9970026  0.9908816  0.5157331

 Al 
  0.0011064  0.2339847  0.7349599

 Al 
  0.2590354  0.0040456  0.7218615

 Al 
  0.2672838  0.2510259  0.4869610

 Al 
  0.0078969  0.4958443  0.5082248

 Al 
  0.9968690  0.7409992  0.7471474

 Al 
  0.2511324  0.4922355  0.7535766

 Al 
  0.2517115  0.7457118  0.4941698

 Al 
  0.4985496  0.5219209  0.0133842

 Al 
  0.4941550  0.7572744  0.2537300

 Al 
  0.7573623  0.5256448  0.2666106

 Al 
  0.7521694  0.7426328  0.9836827

 Al 
  0.4910413  0.9986882  0.4912566

 Al 
  0.4951178  0.2443802  0.7811160

 Al 
  0.7514133  0.0063252  0.7442094

 Al 
  0.7421897  0.2377952  0.5019553

 Al 
  0.4989753  0.5015173  0.5211128

 Al 
  0.4874313  0.7636850  0.7613200

 Al 
  0.7542374  0.4884783  0.7534664

 Al 
  0.7352829  0.7571259  0.5120019

