32 
charge = 0 
 Al 
  0.0139399  0.0100787  0.9763329

 Al 
  0.0069662  0.2383929  0.2561395

 Al 
  0.2461586  0.0074910  0.2567806

 Al 
  0.2481474  0.2443679  0.0025791

 Al 
  0.5260594  0.9844179  0.9959074

 Al 
  0.5038290  0.2497673  0.2328301

 Al 
  0.7552089  0.0010136  0.2311680

 Al 
  0.7598102  0.2383125  0.0002599

 Al 
  0.9867197  0.4963591  0.0191896

 Al 
  0.9863237  0.7625167  0.2547894

 Al 
  0.2360910  0.5065195  0.2361492

 Al 
  0.2423939  0.7614437  0.0098102

 Al 
  0.0007203  0.9930003  0.5132716

 Al 
  0.9926031  0.2351059  0.7332360

 Al 
  0.2635068  0.0060876  0.7291891

 Al 
  0.2713764  0.2495792  0.4919794

 Al 
  0.9959977  0.4933889  0.5078647

 Al 
  0.9882320  0.7412232  0.7516113

 Al 
  0.2515432  0.4921452  0.7505099

 Al 
  0.2525073  0.7495681  0.4906255

 Al 
  0.5022289  0.5161663  0.0135402

 Al 
  0.5005074  0.7529417  0.2478726

 Al 
  0.7501176  0.5244666  0.2647233

 Al 
  0.7465633  0.7494852  0.9787214

 Al 
  0.4964890  0.0007784  0.4924001

 Al 
  0.5007190  0.2491189  0.7762004

 Al 
  0.7564650  0.0027449  0.7420945

 Al 
  0.7430845  0.2383991  0.5035667

 Al 
  0.5063351  0.5012957  0.5147889

 Al 
  0.4864425  0.7588770  0.7585107

 Al 
  0.7538550  0.4867135  0.7557163

 Al 
  0.7290543  0.7582347  0.5116430

