32 
charge = 0 
 Al 
  0.0129103  0.0108967  0.9764442

 Al 
  0.0062175  0.2408173  0.2553624

 Al 
  0.2468789  0.0088968  0.2556260

 Al 
  0.2501225  0.2460633  0.0036570

 Al 
  0.5260111  0.9851072  0.9948084

 Al 
  0.5024170  0.2500817  0.2351554

 Al 
  0.7539701  0.9998923  0.2350911

 Al 
  0.7608522  0.2360787  0.0009517

 Al 
  0.9886516  0.4979184  0.0196748

 Al 
  0.9847483  0.7632444  0.2569972

 Al 
  0.2365861  0.5048030  0.2378335

 Al 
  0.2421526  0.7582941  0.0103584

 Al 
  0.0025283  0.9936649  0.5106653

 Al 
  0.9896329  0.2371566  0.7331469

 Al 
  0.2649040  0.0068982  0.7340144

 Al 
  0.2726127  0.2495112  0.4949186

 Al 
  0.9903000  0.4924880  0.5072855

 Al 
  0.9851010  0.7413309  0.7536112

 Al 
  0.2512710  0.4925301  0.7495471

 Al 
  0.2524838  0.7511126  0.4895030

 Al 
  0.5040048  0.5125328  0.0128595

 Al 
  0.5034491  0.7511707  0.2453530

 Al 
  0.7460472  0.5225274  0.2635872

 Al 
  0.7447107  0.7525345  0.9776323

 Al 
  0.5000347  0.0020098  0.4929781

 Al 
  0.5037325  0.2513935  0.7727080

 Al 
  0.7580157  0.0006472  0.7415252

 Al 
  0.7434285  0.2392926  0.5034367

 Al 
  0.5096938  0.5009826  0.5113361

 Al 
  0.4861356  0.7554911  0.7561111

 Al 
  0.7533427  0.4861641  0.7565442

 Al 
  0.7270531  0.7584662  0.5112754

