32 
charge = 0 
 Al 
  0.0143718  0.0094129  0.9765408

 Al 
  0.0071853  0.2372024  0.2565776

 Al 
  0.2458653  0.0065974  0.2571977

 Al 
  0.2471524  0.2435164  0.0019108

 Al 
  0.5255705  0.9844030  0.9965633

 Al 
  0.5046396  0.2496250  0.2317212

 Al 
  0.7558871  0.0015903  0.2293834

 Al 
  0.7592248  0.2396961  0.9999183

 Al 
  0.9857705  0.4955745  0.0186847

 Al 
  0.9873051  0.7620972  0.2535295

 Al 
  0.2359995  0.5073746  0.2354970

 Al 
  0.2425375  0.7630922  0.0093795

 Al 
  0.9997785  0.9925808  0.5143656

 Al 
  0.9944483  0.2343473  0.7334488

 Al 
  0.2626058  0.0056185  0.7268997

 Al 
  0.2705497  0.2497550  0.4905401

 Al 
  0.9990397  0.4939409  0.5080850

 Al 
  0.9901403  0.7411613  0.7504864

 Al 
  0.2515841  0.4920313  0.7511113

 Al 
  0.2524405  0.7486820  0.4913470

 Al 
  0.5012895  0.5178952  0.0137233

 Al 
  0.4988961  0.7539775  0.2492785

 Al 
  0.7521843  0.5251856  0.2652542

 Al 
  0.7477390  0.7477711  0.9796112

 Al 
  0.4947775  0.0001658  0.4920945

 Al 
  0.4991919  0.2478961  0.7778155

 Al 
  0.7554304  0.0037944  0.7424830

 Al 
  0.7428791  0.2380563  0.5034268

 Al 
  0.5044837  0.5014046  0.5165363

 Al 
  0.4866318  0.7604376  0.7595626

 Al 
  0.7540468  0.4870786  0.7552398

 Al 
  0.7303549  0.7580367  0.5117865

