32 
charge = 0 
 Al 
  0.0113113  0.0112841  0.9774504

 Al 
  0.0046965  0.2442862  0.2544416

 Al 
  0.2481412  0.0103213  0.2535382

 Al 
  0.2529380  0.2484444  0.0047300

 Al 
  0.5243973  0.9871380  0.9935251

 Al 
  0.5008217  0.2505334  0.2386293

 Al 
  0.7523130  0.9984493  0.2411490

 Al 
  0.7620477  0.2337718  0.0019640

 Al 
  0.9912937  0.5001275  0.0195906

 Al 
  0.9830479  0.7639696  0.2596357

 Al 
  0.2377840  0.5023823  0.2409052

 Al 
  0.2418903  0.7540926  0.0106851

 Al 
  0.0049998  0.9944706  0.5064861

 Al 
  0.9865366  0.2407987  0.7335404

 Al 
  0.2663581  0.0078362  0.7411564

 Al 
  0.2737043  0.2498206  0.4991708

 Al 
  0.9828350  0.4915920  0.5062299

 Al 
  0.9817546  0.7414225  0.7559626

 Al 
  0.2506064  0.4932825  0.7484568

 Al 
  0.2522845  0.7529701  0.4883595

 Al 
  0.5063598  0.5070949  0.0113583

 Al 
  0.5070838  0.7492302  0.2422194

 Al 
  0.7405982  0.5189508  0.2617519

 Al 
  0.7428011  0.7561482  0.9771892

 Al 
  0.5050641  0.0037399  0.4937330

 Al 
  0.5079476  0.2543030  0.7673977

 Al 
  0.7593906  0.9978046  0.7410004

 Al 
  0.7438196  0.2408408  0.5026100

 Al 
  0.5137852  0.5003341  0.5065442

 Al 
  0.4857829  0.7503502  0.7523811

 Al 
  0.7523934  0.4857198  0.7576333

 Al 
  0.7252116  0.7584860  0.5105725

