32 
charge = 0 
 Al 
  0.0104883  0.0112074  0.9782795

 Al 
  0.0037684  0.2460435  0.2540518

 Al 
  0.2488775  0.0108472  0.2523390

 Al 
  0.2543810  0.2496423  0.0050851

 Al 
  0.5230434  0.9885451  0.9929533

 Al 
  0.5001955  0.2507562  0.2404633

 Al 
  0.7514789  0.9978145  0.2443740

 Al 
  0.7625167  0.2329414  0.0024937

 Al 
  0.9925387  0.5012363  0.0192775

 Al 
  0.9823524  0.7641627  0.2607866

 Al 
  0.2385798  0.5011670  0.2427528

 Al 
  0.2417999  0.7520754  0.0106876

 Al 
  0.0062126  0.9948876  0.5042510

 Al 
  0.9853720  0.2428655  0.7339451

 Al 
  0.2669472  0.0082224  0.7448567

 Al 
  0.2740124  0.2501126  0.5013403

 Al 
  0.9792869  0.4913135  0.5055913

 Al 
  0.9804737  0.7414286  0.7569440

 Al 
  0.2501757  0.4937256  0.7479716

 Al 
  0.2521595  0.7537956  0.4879214

 Al 
  0.5074910  0.5042387  0.0103807

 Al 
  0.5086865  0.7484939  0.2407901

 Al 
  0.7380625  0.5168036  0.2606864

 Al 
  0.7420610  0.7576803  0.9773823

 Al 
  0.5075380  0.0045938  0.4940944

 Al 
  0.5100564  0.2556383  0.7645946

 Al 
  0.7597743  0.9964705  0.7408272

 Al 
  0.7439904  0.2417083  0.5019430

 Al 
  0.5155512  0.4999059  0.5041731

 Al 
  0.4856331  0.7476585  0.7504356

 Al 
  0.7518229  0.4856480  0.7581939

 Al 
  0.7246733  0.7583647  0.5101270

