32 
charge = 0 
 Al 
  0.0082694  0.0099364  0.9819502

 Al 
  0.0006361  0.2508626  0.2532362

 Al 
  0.2513576  0.0115588  0.2485632

 Al 
  0.2584563  0.2529714  0.0052139

 Al 
  0.5173296  0.9938926  0.9916514

 Al 
  0.4992884  0.2513093  0.2458529

 Al 
  0.7491015  0.9966227  0.2536916

 Al 
  0.7630909  0.2321209  0.0040629

 Al 
  0.9953851  0.5041285  0.0173964

 Al 
  0.9809725  0.7636726  0.2631343

 Al 
  0.2416044  0.4978541  0.2492525

 Al 
  0.2418271  0.7469915  0.0100601

 Al 
  0.0093708  0.9963752  0.4979221

 Al 
  0.9837706  0.2492141  0.7360477

 Al 
  0.2681922  0.0088411  0.7552819

 Al 
  0.2738243  0.2513502  0.5073128

 Al 
  0.9704953  0.4915710  0.5033068

 Al 
  0.9787251  0.7412294  0.7586097

 Al 
  0.2485966  0.4951314  0.7467724

 Al 
  0.2518712  0.7556854  0.4872160

 Al 
  0.5103101  0.4959457  0.0067274

 Al 
  0.5119276  0.7475756  0.2374437

 Al 
  0.7325368  0.5093213  0.2567695

 Al 
  0.7407245  0.7606356  0.9797609

 Al 
  0.5136070  0.0067348  0.4951537

 Al 
  0.5156638  0.2585763  0.7564390

 Al 
  0.7595527  0.9935251  0.7406218

 Al 
  0.7444508  0.2443072  0.4991102

 Al 
  0.5188159  0.4982736  0.4980137

 Al 
  0.4853906  0.7400760  0.7450485

 Al 
  0.7498614  0.4863274  0.7599364

 Al 
  0.7249913  0.7573833  0.5084427

