32 
charge = 0 
 Al 
  0.0097235  0.0109673  0.9792634

 Al 
  0.0028080  0.2476833  0.2537313

 Al 
  0.2496324  0.0112222  0.2511423

 Al 
  0.2557448  0.2507623  0.0052881

 Al 
  0.5214581  0.9900921  0.9924595

 Al 
  0.4997364  0.2509591  0.2422306

 Al 
  0.7506893  0.9973009  0.2474704

 Al 
  0.7628521  0.2323907  0.0030011

 Al 
  0.9936179  0.5022548  0.0188221

 Al 
  0.9817942  0.7642023  0.2617408

 Al 
  0.2394485  0.5000371  0.2446884

 Al 
  0.2417516  0.7502648  0.0105886

 Al 
  0.0073177  0.9953134  0.5021175

 Al 
  0.9845329  0.2449149  0.7344661

 Al 
  0.2674323  0.0085169  0.7483602

 Al 
  0.2741436  0.2504604  0.5033699

 Al 
  0.9761200  0.4911935  0.5049205

 Al 
  0.9795468  0.7414014  0.7577137

 Al 
  0.2497154  0.4941711  0.7475459

 Al 
  0.2520445  0.7545023  0.4875922

 Al 
  0.5085082  0.5015024  0.0093201

 Al 
  0.5100131  0.7479753  0.2395500

 Al 
  0.7358893  0.5145612  0.2595639

 Al 
  0.7414918  0.7589166  0.9778365

 Al 
  0.5097607  0.0053673  0.4944310

 Al 
  0.5120031  0.2567843  0.7619091

 Al 
  0.7599327  0.9953195  0.7407133

 Al 
  0.7441389  0.2425598  0.5011633

 Al 
  0.5169732  0.4994344  0.5020061

 Al 
  0.4855143  0.7451067  0.7486053

 Al 
  0.7512289  0.4857012  0.7587446

 Al 
  0.7244369  0.7581592  0.5096443

