32 
charge = 0 
 Al 
  0.0094872  0.0108571  0.9796173

 Al 
  0.0024887  0.2481944  0.2536409

 Al 
  0.2498837  0.0113138  0.2507524

 Al 
  0.2561742  0.2511126  0.0053228

 Al 
  0.5208950  0.9906242  0.9923147

 Al 
  0.4996213  0.2510198  0.2427924

 Al 
  0.7504393  0.9971598  0.2484518

 Al 
  0.7629325  0.2322694  0.0031632

 Al 
  0.9939335  0.5025667  0.0186451

 Al 
  0.9816383  0.7641800  0.2620105

 Al 
  0.2397480  0.4996857  0.2453406

 Al 
  0.2417455  0.7497166  0.0105366

 Al 
  0.0076556  0.9954581  0.5014455

 Al 
  0.9843263  0.2455757  0.7346629

 Al 
  0.2675709  0.0085936  0.7494604

 Al 
  0.2741498  0.2505854  0.5040035

 Al 
  0.9751658  0.4911898  0.5046928

 Al 
  0.9793179  0.7413853  0.7579179

 Al 
  0.2495582  0.4943171  0.7474184

 Al 
  0.2520098  0.7547089  0.4875068

 Al 
  0.5088152  0.5006349  0.0089562

 Al 
  0.5103869  0.7478516  0.2391825

 Al 
  0.7352619  0.5138087  0.2591802

 Al 
  0.7413371  0.7592582  0.9780419

 Al 
  0.5104289  0.0056012  0.4945374

 Al 
  0.5126033  0.2571172  0.7610564

 Al 
  0.7599389  0.9949854  0.7406873

 Al 
  0.7441847  0.2428320  0.5008861

 Al 
  0.5173630  0.4992723  0.5013428

 Al 
  0.4854834  0.7443047  0.7480335

 Al 
  0.7510309  0.4857482  0.7589228

 Al 
  0.7244245  0.7580726  0.5094785

