32 
charge = 0 
 Al 
  0.0080961  0.0097458  0.9823734

 Al 
  0.0003391  0.2512499  0.2531880

 Al 
  0.2515989  0.0115551  0.2482216

 Al 
  0.2587916  0.2532486  0.0051495

 Al 
  0.5167120  0.9944471  0.9915722

 Al 
  0.4992847  0.2513440  0.2463170

 Al 
  0.7489035  0.9965806  0.2544639

 Al 
  0.7630662  0.2321828  0.0042028

 Al 
  0.9955621  0.5043401  0.0171625

 Al 
  0.9808995  0.7635266  0.2632444

 Al 
  0.2419237  0.4975892  0.2499072

 Al 
  0.2418606  0.7466177  0.0099574

 Al 
  0.0096109  0.9965435  0.4974160

 Al 
  0.9837805  0.2497661  0.7363113

 Al 
  0.2682639  0.0088510  0.7561321

 Al 
  0.2737142  0.2514764  0.5077917

 Al 
  0.9698753  0.4916997  0.5030704

 Al 
  0.9787436  0.7411960  0.7586431

 Al 
  0.2484320  0.4952577  0.7466821

 Al 
  0.2518588  0.7558116  0.4872011

 Al 
  0.5105057  0.4952416  0.0063487

 Al 
  0.5120786  0.7475979  0.2372209

 Al 
  0.7322459  0.5085763  0.2563425

 Al 
  0.7406638  0.7607668  0.9801247

 Al 
  0.5140018  0.0068833  0.4952577

 Al 
  0.5160896  0.2587347  0.7557411

 Al 
  0.7594278  0.9933679  0.7406230

 Al 
  0.7444990  0.2445263  0.4987983

 Al 
  0.5189211  0.4981041  0.4975558

 Al 
  0.4853918  0.7394597  0.7446191

 Al 
  0.7496708  0.4864759  0.7600985

 Al 
  0.7251856  0.7572385  0.5082620

