32 
charge = 0 
 Al 
  0.0070058  0.0081172  0.9857198

 Al 
  0.9982946  0.2536657  0.2529330

 Al 
  0.2533439  0.0112383  0.2459049

 Al 
  0.2609079  0.2550864  0.0043773

 Al 
  0.5121937  0.9985063  0.9912616

 Al 
  0.4995730  0.2514702  0.2493602

 Al 
  0.7476561  0.9966264  0.2592557

 Al 
  0.7625105  0.2331939  0.0051705

 Al 
  0.9964061  0.5055084  0.0153408

 Al 
  0.9806000  0.7619771  0.2634696

 Al 
  0.2443184  0.4959334  0.2546755

 Al 
  0.2422739  0.7444260  0.0090763

 Al 
  0.0110477  0.9979642  0.4943901

 Al 
  0.9845589  0.2533278  0.7384956

 Al 
  0.2685560  0.0086840  0.7614215

 Al 
  0.2724877  0.2523056  0.5107717

 Al 
  0.9664695  0.4931625  0.5013007

 Al 
  0.9796990  0.7409423  0.7582682

 Al 
  0.2471746  0.4961153  0.7461363

 Al 
  0.2518526  0.7565096  0.4873385

 Al 
  0.5114970  0.4906725  0.0035728

 Al 
  0.5124177  0.7481870  0.2360366

 Al 
  0.7313425  0.5031917  0.2529528

 Al 
  0.7404708  0.7611022  0.9833375

 Al 
  0.5158198  0.0076358  0.4961079

 Al 
  0.5185597  0.2592161  0.7511336

 Al 
  0.7581345  0.9928655  0.7407319

 Al 
  0.7449594  0.2459037  0.4964729

 Al 
  0.5186748  0.4968999  0.4949111

 Al 
  0.4855416  0.7356492  0.7419967

 Al 
  0.7483516  0.4879944  0.7612074

 Al 
  0.7273031  0.7559217  0.5068685

