32 
charge = 0 
 Al 
  0.0067064  0.0075467  0.9868435

 Al 
  0.9977043  0.2543005  0.2528749

 Al 
  0.2538835  0.0110589  0.2452403

 Al 
  0.2614586  0.2556161  0.0040543

 Al 
  0.5108151  0.9997661  0.9912529

 Al 
  0.4997401  0.2514628  0.2502030

 Al 
  0.7473355  0.9967427  0.2604772

 Al 
  0.7622209  0.2336642  0.0054527

 Al 
  0.9965472  0.5057547  0.0147468

 Al 
  0.9805690  0.7613410  0.2633620

 Al 
  0.2450807  0.4954990  0.2561519

 Al 
  0.2424608  0.7438864  0.0087669

 Al 
  0.0114054  0.9984827  0.4936587

 Al 
  0.9850045  0.2542882  0.7392555

 Al 
  0.2685659  0.0085627  0.7627828

 Al 
  0.2719729  0.2525172  0.5115477

 Al 
  0.9657418  0.4937800  0.5007351

 Al 
  0.9802337  0.7408717  0.7579687

 Al 
  0.2467613  0.4963603  0.7460014

 Al 
  0.2518761  0.7566680  0.4874561

 Al 
  0.5116665  0.4894226  0.0027115

 Al 
  0.5123038  0.7484790  0.2357977

 Al 
  0.7314229  0.5015445  0.2518031

 Al 
  0.7404757  0.7610378  0.9845020

 Al 
  0.5160462  0.0077669  0.4964148

 Al 
  0.5191327  0.2591567  0.7498379

 Al 
  0.7576308  0.9929026  0.7408024

 Al 
  0.7451537  0.2462663  0.4957465

 Al 
  0.5182986  0.4965435  0.4942849

 Al 
  0.4856418  0.7346753  0.7413346

 Al 
  0.7479716  0.4886095  0.7615267

 Al 
  0.7281682  0.7554255  0.5064081

