32 
charge = 0 
 Al 
  0.0055418  0.0050950  0.9916465

 Al 
  0.9955745  0.2564811  0.2526781

 Al 
  0.2560368  0.0101208  0.2427825

 Al 
  0.2632580  0.2576778  0.0025444

 Al 
  0.5056148  0.0047547  0.9915747

 Al 
  0.5005594  0.2512289  0.2532164

 Al 
  0.7463244  0.9975088  0.2643532

 Al 
  0.7606802  0.2359648  0.0065009

 Al 
  0.9967823  0.5063277  0.0123063

 Al 
  0.9806321  0.7582644  0.2623335

 Al 
  0.2481795  0.4940040  0.2619784

 Al 
  0.2434459  0.7420796  0.0074464

 Al 
  0.0125699  0.0008861  0.4914645

 Al 
  0.9874053  0.2576160  0.7425734

 Al 
  0.2682503  0.0078523  0.7672219

 Al 
  0.2694260  0.2531100  0.5141639

 Al 
  0.9639028  0.4967823  0.4984332

 Al 
  0.9830937  0.7407096  0.7561692

 Al 
  0.2450163  0.4972873  0.7455745

 Al 
  0.2520370  0.7571593  0.4881813

 Al 
  0.5118237  0.4850057  0.9993156

 Al 
  0.5111653  0.7498738  0.2352631

 Al 
  0.7328796  0.4951500  0.2468504

 Al 
  0.7406787  0.7603398  0.9896577

 Al 
  0.5157356  0.0078956  0.4978640

 Al 
  0.5207762  0.2582001  0.7450510

 Al 
  0.7553549  0.9936439  0.7412591

 Al 
  0.7462242  0.2475249  0.4929372

 Al 
  0.5158705  0.4952577  0.4923271

 Al 
  0.4862989  0.7315108  0.7392109

 Al 
  0.7466091  0.4915722  0.7626578

 Al 
  0.7322509  0.7531149  0.5044627

