32 
charge = 0 
 Al 
  0.0053475  0.0046842  0.9924571

 Al 
  0.9952651  0.2567930  0.2526471

 Al 
  0.2563833  0.0099463  0.2424150

 Al 
  0.2634944  0.2580083  0.0022821

 Al 
  0.5048352  0.0055480  0.9916749

 Al 
  0.5006980  0.2511621  0.2536570

 Al 
  0.7461982  0.9976635  0.2648495

 Al 
  0.7603881  0.2363744  0.0066556

 Al 
  0.9967885  0.5063710  0.0119091

 Al 
  0.9806643  0.7577075  0.2620984

 Al 
  0.2486808  0.4937911  0.2628979

 Al 
  0.2436365  0.7418209  0.0072274

 Al 
  0.0127283  0.0013143  0.4911997

 Al 
  0.9878583  0.2580899  0.7431402

 Al 
  0.2681464  0.0077113  0.7678110

 Al 
  0.2689545  0.2531669  0.5145290

 Al 
  0.9637320  0.4973232  0.4980620

 Al 
  0.9836320  0.7407059  0.7558104

 Al 
  0.2447243  0.4974308  0.7455188

 Al 
  0.2520692  0.7572249  0.4883273

 Al 
  0.5117816  0.4843671  0.9987798

 Al 
  0.5109054  0.7501126  0.2352285

 Al 
  0.7332372  0.4941550  0.2460138

 Al 
  0.7407331  0.7601851  0.9905376

 Al 
  0.5155376  0.0078635  0.4981276

 Al 
  0.5209643  0.2579637  0.7443245

 Al 
  0.7549651  0.9938258  0.7413581

 Al 
  0.7464395  0.2477093  0.4925066

 Al 
  0.5153817  0.4950745  0.4920685

 Al 
  0.4864425  0.7310913  0.7389325

 Al 
  0.7464135  0.4921081  0.7628162

 Al 
  0.7329736  0.7527041  0.5041372

