32 
charge = 0 
 Al 
  0.0057262  0.0054911  0.9908680

 Al 
  0.9958839  0.2561705  0.2527078

 Al 
  0.2557002  0.0102854  0.2431476

 Al 
  0.2630154  0.2573561  0.0027957

 Al 
  0.5063895  0.0039812  0.9914893

 Al 
  0.5004245  0.2512858  0.2527783

 Al 
  0.7464569  0.9973652  0.2638397

 Al 
  0.7609537  0.2355750  0.0063462

 Al 
  0.9967712  0.5062744  0.0126924

 Al 
  0.9806062  0.7587916  0.2625464

 Al 
  0.2476919  0.4942169  0.2610774

 Al 
  0.2432689  0.7423370  0.0076580

 Al 
  0.0124090  0.0004789  0.4917430

 Al 
  0.9869796  0.2571407  0.7420313

 Al 
  0.2683357  0.0079835  0.7666192

 Al 
  0.2698691  0.2530444  0.5137963

 Al 
  0.9640971  0.4962687  0.4987959

 Al 
  0.9825875  0.7407195  0.7565022

 Al 
  0.2452985  0.4971462  0.7456314

 Al 
  0.2520073  0.7570925  0.4880451

 Al 
  0.5118484  0.4856443  0.9998404

 Al 
  0.5114004  0.7496436  0.2353089

 Al 
  0.7325590  0.4961264  0.2476548

 Al 
  0.7406317  0.7604822  0.9888124

 Al 
  0.5158928  0.0079130  0.4976140

 Al 
  0.5205757  0.2584117  0.7457675

 Al 
  0.7557299  0.9934805  0.7411688

 Al 
  0.7460262  0.2473417  0.4933617

 Al 
  0.5163259  0.4954433  0.4925907

 Al 
  0.4861702  0.7319403  0.7394968

 Al 
  0.7468046  0.4910648  0.7624969

 Al 
  0.7315628  0.7535048  0.5047758

