32 
charge = 0 
 Al 
  0.0051458  0.0042609  0.9932974

 Al 
  0.9949569  0.2571036  0.2526150

 Al 
  0.2567385  0.0097631  0.2420449

 Al 
  0.2637233  0.2583498  0.0020098

 Al 
  0.5040530  0.0063586  0.9917912

 Al 
  0.5008391  0.2510866  0.2540976

 Al 
  0.7460782  0.9978293  0.2653284

 Al 
  0.7600775  0.2368014  0.0068103

 Al 
  0.9967885  0.5064031  0.0114982

 Al 
  0.9807039  0.7571222  0.2618410

 Al 
  0.2491968  0.4935808  0.2638372

 Al 
  0.2438407  0.7415598  0.0070009

 Al 
  0.0128843  0.0017635  0.4909497

 Al 
  0.9883372  0.2585615  0.7437280

 Al 
  0.2680263  0.0075603  0.7683840

 Al 
  0.2684558  0.2532139  0.5148904

 Al 
  0.9635860  0.4978900  0.4976796

 Al 
  0.9842000  0.7407109  0.7554267

 Al 
  0.2444223  0.4975769  0.7454643

 Al 
  0.2521039  0.7572917  0.4884857

 Al 
  0.5117210  0.4837285  0.9982340

 Al 
  0.5106195  0.7503577  0.2352049

 Al 
  0.7336308  0.4931451  0.2451463

 Al 
  0.7407925  0.7600168  0.9914509

 Al 
  0.5152987  0.0078177  0.4984073

 Al 
  0.5211413  0.2577026  0.7435894

 Al 
  0.7545604  0.9940250  0.7414682

 Al 
  0.7466734  0.2478974  0.4920734

 Al 
  0.5148582  0.4948926  0.4918135

 Al 
  0.4866009  0.7306816  0.7386615

 Al 
  0.7462192  0.4926724  0.7629709

 Al 
  0.7337273  0.7522759  0.5038006

