32 
charge = 0 
 Al 
  0.0062386  0.0065863  0.9887221

 Al 
  0.9968046  0.2552374  0.2527932

 Al 
  0.2547498  0.0107173  0.2442144

 Al 
  0.2622556  0.2564502  0.0034800

 Al 
  0.5086567  0.0017846  0.9913160

 Al 
  0.5000520  0.2514071  0.2514776

 Al 
  0.7468789  0.9970014  0.2622147

 Al 
  0.7616665  0.2345255  0.0058908

 Al 
  0.9966932  0.5060554  0.0137741

 Al 
  0.9805628  0.7601950  0.2630501

 Al 
  0.2463207  0.4948555  0.2585144

 Al 
  0.2428147  0.7431068  0.0082471

 Al 
  0.0119177  0.9993899  0.4926489

 Al 
  0.9858683  0.2557151  0.7405438

 Al 
  0.2685065  0.0083164  0.7647456

 Al 
  0.2710348  0.2528056  0.5126813

 Al 
  0.9648198  0.4949000  0.4998144

 Al 
  0.9812658  0.7407802  0.7573462

 Al 
  0.2460769  0.4967427  0.7458096

 Al 
  0.2519294  0.7568870  0.4877036

 Al 
  0.5118237  0.4875452  0.0013341

 Al 
  0.5119598  0.7490112  0.2355094

 Al 
  0.7318227  0.4989320  0.2498713

 Al 
  0.7405265  0.7608262  0.9864957

 Al 
  0.5161316  0.0078895  0.4969556

 Al 
  0.5199050  0.2588944  0.7478466

 Al 
  0.7567559  0.9931043  0.7409522

 Al 
  0.7455274  0.2468021  0.4945931

 Al 
  0.5174731  0.4959977  0.4934100

 Al 
  0.4858571  0.7332743  0.7403903

 Al 
  0.7473925  0.4897146  0.7620105

 Al 
  0.7297102  0.7545518  0.5056433

