32 
charge = 0 
 Al 
  0.0040010  0.0019950  0.9978652

 Al 
  0.9935152  0.2586134  0.2524207

 Al 
  0.2586023  0.0087261  0.2402183

 Al 
  0.2646812  0.2601790  0.0005482

 Al 
  0.5002574  0.0105651  0.9926105

 Al 
  0.5015371  0.2505631  0.2562386

 Al 
  0.7455968  0.9987761  0.2673581

 Al 
  0.7583028  0.2391144  0.0075343

 Al 
  0.9967130  0.5064044  0.0093176

 Al 
  0.9810047  0.7538377  0.2602495

 Al 
  0.2518972  0.4925647  0.2686612

 Al 
  0.2450559  0.7402381  0.0058091

 Al 
  0.0136144  0.0042745  0.4899411

 Al 
  0.9910549  0.2608324  0.7469308

 Al 
  0.2671378  0.0066667  0.7709123

 Al 
  0.2655834  0.2532758  0.5166093

 Al 
  0.9632716  0.5010247  0.4956859

 Al 
  0.9874288  0.7408755  0.7531805

 Al 
  0.2428011  0.4983429  0.7452181

 Al 
  0.2522920  0.7576271  0.4894188

 Al 
  0.5111282  0.4806557  0.9954210

 Al 
  0.5088535  0.7516286  0.2352829

 Al 
  0.7360626  0.4880278  0.2404658

 Al 
  0.7411787  0.7590255  0.9963702

 Al 
  0.5135006  0.0073449  0.5000087

 Al 
  0.5218108  0.2560665  0.7398594

 Al 
  0.7523897  0.9952329  0.7421724

 Al 
  0.7481003  0.2488664  0.4899473

 Al 
  0.5118336  0.4940535  0.4906304

 Al 
  0.4876108  0.7288575  0.7374672

 Al 
  0.7453158  0.4958381  0.7636540

 Al 
  0.7378682  0.7499072  0.5019925

