32 
charge = 0 
 Al 
  0.0021199  0.9988515  0.0044651

 Al 
  0.9921910  0.2603559  0.2520469

 Al 
  0.2610787  0.0071259  0.2381281

 Al 
  0.2651886  0.2628150  0.9985607

 Al 
  0.4961462  0.0160611  0.9943184

 Al 
  0.5022487  0.2495025  0.2586716

 Al 
  0.7453653  0.0001621  0.2688468

 Al 
  0.7555703  0.2422541  0.0081531

 Al 
  0.9965200  0.5059836  0.0062423

 Al 
  0.9817546  0.7489147  0.2574774

 Al 
  0.2554440  0.4914262  0.2747723

 Al 
  0.2471548  0.7384511  0.0042077

 Al 
  0.0143768  0.0080145  0.4893433

 Al 
  0.9951661  0.2633731  0.7515754

 Al 
  0.2651069  0.0051792  0.7730422

 Al 
  0.2609735  0.2528303  0.5184892

 Al 
  0.9641144  0.5054861  0.4930610

 Al 
  0.9923519  0.7416143  0.7495879

 Al 
  0.2405784  0.4994060  0.7449433

 Al 
  0.2525345  0.7580924  0.4909398

 Al 
  0.5095490  0.4773217  0.9917974

 Al 
  0.5057596  0.7531880  0.2359450

 Al 
  0.7400908  0.4817781  0.2339179

 Al 
  0.7418754  0.7574600  0.0032214

 Al 
  0.5096703  0.0059849  0.5024999

 Al 
  0.5220831  0.2532956  0.7351431

 Al 
  0.7494221  0.9971264  0.7435288

 Al 
  0.7506101  0.2502438  0.4876145

 Al 
  0.5072162  0.4932949  0.4893768

 Al 
  0.4895203  0.7272635  0.7364858

 Al 
  0.7444570  0.5006015  0.7641491

 Al 
  0.7437639  0.7465410  0.4994456

