32 
charge = 0 
 Al 
  0.0012735  0.9976585  0.0070739

 Al 
  0.9920115  0.2608893  0.2518489

 Al 
  0.2619462  0.0064564  0.2375192

 Al 
  0.2650215  0.2638607  0.9978442

 Al 
  0.4950398  0.0180028  0.9951686

 Al 
  0.5023922  0.2489790  0.2594154

 Al 
  0.7454272  0.0006732  0.2689731

 Al 
  0.7544639  0.2433469  0.0081840

 Al 
  0.9964606  0.5056965  0.0050282

 Al 
  0.9822063  0.7469506  0.2562299

 Al 
  0.2566655  0.4910821  0.2768304

 Al 
  0.2481189  0.7377543  0.0036261

 Al 
  0.0145760  0.0094971  0.4893693

 Al 
  0.9968071  0.2641243  0.7534181

 Al 
  0.2640117  0.0045171  0.7733825

 Al 
  0.2589822  0.2524677  0.5190349

 Al 
  0.9649374  0.5071333  0.4921303

 Al 
  0.9943542  0.7421316  0.7480843

 Al 
  0.2397790  0.4998292  0.7448381

 Al 
  0.2526038  0.7582842  0.4915883

 Al 
  0.5086753  0.4764232  0.9905240

 Al 
  0.5043661  0.7536780  0.2364066

 Al 
  0.7417529  0.4797807  0.2314650

 Al 
  0.7421836  0.7568177  0.0057819

 Al 
  0.5077768  0.0051780  0.5035147

 Al 
  0.5219667  0.2521323  0.7335095

 Al 
  0.7483479  0.9978541  0.7441971

 Al 
  0.7517462  0.2508143  0.4869969

 Al 
  0.5054020  0.4931699  0.4890352

 Al 
  0.4904374  0.7269925  0.7363583

 Al 
  0.7442911  0.5025135  0.7641528

 Al 
  0.7459742  0.7453109  0.4984679

