32 
charge = 0 
 Al 
  0.0004195  0.9965781  0.0095032

 Al 
  0.9920969  0.2612841  0.2516224

 Al 
  0.2626652  0.0058042  0.2370996

 Al 
  0.2646107  0.2648334  0.9972279

 Al 
  0.4943307  0.0196599  0.9960596

 Al 
  0.5024306  0.2484320  0.2599859

 Al 
  0.7455708  0.0011101  0.2688357

 Al 
  0.7534318  0.2442342  0.0080429

 Al 
  0.9964371  0.5053685  0.0038810

 Al 
  0.9827546  0.7451265  0.2549762

 Al 
  0.2576617  0.4908247  0.2784961

 Al 
  0.2491040  0.7371034  0.0031162

 Al 
  0.0146948  0.0108683  0.4895364

 Al 
  0.9983231  0.2646664  0.7551458

 Al 
  0.2628001  0.0038513  0.7734159

 Al 
  0.2570170  0.2520222  0.5194248

 Al 
  0.9660363  0.5085503  0.4913358

 Al 
  0.9962452  0.7427751  0.7466499

 Al 
  0.2391033  0.5002339  0.7447305

 Al 
  0.2526484  0.7584686  0.4922157

 Al 
  0.5077137  0.4758576  0.9894349

 Al 
  0.5029701  0.7540493  0.2369635

 Al 
  0.7432936  0.4782474  0.2292981

 Al 
  0.7424806  0.7562101  0.0080565

 Al 
  0.5058054  0.0042448  0.5044552

 Al 
  0.5217217  0.2510408  0.7321296

 Al 
  0.7474259  0.9984889  0.7449012

 Al 
  0.7528848  0.2513700  0.4866281

 Al 
  0.5037622  0.4931687  0.4888211

 Al 
  0.4913878  0.7269615  0.7363980

 Al 
  0.7442528  0.5042993  0.7640327

 Al 
  0.7479197  0.7442676  0.4975756

