32 
charge = 0 
 Al 
  0.9989592  0.9949817  0.0132531

 Al 
  0.9928630  0.2616442  0.2511670

 Al 
  0.2635241  0.0047337  0.2368026

 Al 
  0.2633570  0.2663074  0.9964111

 Al 
  0.4939310  0.0218702  0.9976239

 Al 
  0.5022722  0.2474605  0.2606208

 Al 
  0.7459705  0.0016794  0.2681105

 Al 
  0.7518588  0.2452564  0.0073771

 Al 
  0.9965138  0.5047572  0.0020420

 Al 
  0.9839476  0.7423494  0.2528452

 Al 
  0.2588164  0.4905673  0.2804416

 Al 
  0.2508118  0.7360873  0.0024021

 Al 
  0.0147134  0.0129288  0.4900908

 Al 
  0.0005878  0.2651304  0.7578400

 Al 
  0.2604945  0.0027065  0.7728862

 Al 
  0.2537461  0.2511064  0.5197490

 Al 
  0.9685387  0.5103968  0.4902913

 Al 
  0.9992117  0.7441637  0.7443877

 Al 
  0.2382605  0.5008985  0.7445139

 Al 
  0.2526570  0.7587669  0.4932318

 Al 
  0.5059032  0.4756151  0.9879659

 Al 
  0.5006163  0.7544131  0.2381293

 Al 
  0.7455782  0.4766794  0.2262759

 Al 
  0.7429434  0.7552448  0.0112878

 Al 
  0.5023390  0.0023848  0.5058549

 Al 
  0.5210311  0.2493998  0.7303190

 Al 
  0.7462106  0.9993429  0.7461660

 Al 
  0.7547918  0.2522920  0.4865465

 Al 
  0.5014195  0.4934323  0.4887580

 Al 
  0.4930585  0.7274071  0.7368063

 Al 
  0.7444755  0.5070430  0.7635612

 Al 
  0.7505965  0.7429496  0.4962428

