32 
charge = 0 
 Al 
  0.9956970  0.9921786  0.0205052

 Al 
  0.9971635  0.2612272  0.2497203

 Al 
  0.2638508  0.0023675  0.2377122

 Al 
  0.2582941  0.2688171  0.9954656

 Al 
  0.4956116  0.0247488  0.0011918

 Al 
  0.5011262  0.2451624  0.2610799

 Al 
  0.7473380  0.0023600  0.2650191

 Al 
  0.7490075  0.2456747  0.0039676

 Al 
  0.9972885  0.5033600  0.9979865

 Al 
  0.9880711  0.7371900  0.2479605

 Al 
  0.2592446  0.4906614  0.2813326

 Al 
  0.2547968  0.7340763  0.0012636

 Al 
  0.0138867  0.0165165  0.4922417

 Al 
  0.0044181  0.2643532  0.7631763

 Al 
  0.2542745  0.0000309  0.7699903

 Al 
  0.2465212  0.2485892  0.5191872

 Al 
  0.9769950  0.5122642  0.4891008

 Al 
  0.0051148  0.7486399  0.7399708

 Al 
  0.2376986  0.5024627  0.7437169

 Al 
  0.2523613  0.7593065  0.4953492

 Al 
  0.5011584  0.4777523  0.9859314

 Al 
  0.4954037  0.7541619  0.2417455

 Al 
  0.7492971  0.4770655  0.2220583

 Al 
  0.7437082  0.7531855  0.0163395

 Al 
  0.4941983  0.9970719  0.5081630

 Al 
  0.5182949  0.2466623  0.7280778

 Al 
  0.7448369  0.0003626  0.7492364

 Al 
  0.7589451  0.2543562  0.4884276

 Al 
  0.4979531  0.4950869  0.4899349

 Al 
  0.4970583  0.7302671  0.7389312

 Al 
  0.7461648  0.5122345  0.7614264

 Al 
  0.7542238  0.7418036  0.4937862

