32 
charge = 0 
 Al 
  0.9983528  0.9943938  0.0146948

 Al 
  0.9934050  0.2616863  0.2509467

 Al 
  0.2637481  0.0042968  0.2368212

 Al 
  0.2626405  0.2668544  0.9961499

 Al 
  0.4940164  0.0225929  0.9982835

 Al 
  0.5021323  0.2470459  0.2607854

 Al 
  0.7461834  0.0018588  0.2676637

 Al 
  0.7512685  0.2455114  0.0069403

 Al 
  0.9965942  0.5044936  0.0012982

 Al 
  0.9845540  0.7413012  0.2519566

 Al 
  0.2591060  0.4905203  0.2809428

 Al 
  0.2515333  0.7356913  0.0021521

 Al 
  0.0146515  0.0136936  0.4904052

 Al 
  0.0014182  0.2651651  0.7588869

 Al 
  0.2594488  0.0022239  0.7724939

 Al 
  0.2524033  0.2506782  0.5197701

 Al 
  0.9698134  0.5109636  0.4899609

 Al 
  0.0003688  0.7448517  0.7435077

 Al 
  0.2380216  0.5011757  0.7444037

 Al 
  0.2526348  0.7588832  0.4936365

 Al 
  0.5050913  0.4757562  0.9874771

 Al 
  0.4996448  0.7544726  0.2386949

 Al 
  0.7464036  0.4763811  0.2252500

 Al 
  0.7431142  0.7548587  0.0124227

 Al 
  0.5008663  0.0015135  0.5063635

 Al 
  0.5206450  0.2487996  0.7297386

 Al 
  0.7458269  0.9996164  0.7467130

 Al 
  0.7555727  0.2526707  0.4866974

 Al 
  0.5006039  0.4936352  0.4888434

 Al 
  0.4937726  0.7277573  0.7370848

 Al 
  0.7446698  0.5080899  0.7632716

 Al 
  0.7514925  0.7425647  0.4957453

