32 
charge = 0 
 Al 
  0.9977266  0.9938258  0.0161292

 Al 
  0.9940956  0.2616677  0.2506967

 Al 
  0.2638978  0.0038451  0.2369190

 Al 
  0.2617865  0.2673803  0.9959247

 Al 
  0.4942305  0.0232389  0.9989666

 Al 
  0.5019492  0.2466103  0.2609079

 Al 
  0.7464247  0.0020148  0.2671316

 Al 
  0.7506906  0.2456784  0.0063908

 Al 
  0.9967081  0.5042213  0.0005322

 Al 
  0.9852532  0.7402690  0.2510321

 Al 
  0.2592966  0.4905054  0.2812881

 Al 
  0.2522883  0.7352953  0.0019170

 Al 
  0.0145451  0.0144325  0.4907740

 Al 
  0.0022152  0.2651119  0.7599339

 Al 
  0.2583164  0.0017202  0.7720063

 Al 
  0.2510198  0.2502141  0.5197280

 Al 
  0.9712749  0.5114351  0.4896763

 Al 
  0.0015272  0.7456314  0.7426316

 Al 
  0.2378409  0.5014653  0.7442738

 Al 
  0.2525976  0.7589983  0.4940461

 Al 
  0.5042189  0.4760346  0.9870328

 Al 
  0.4986449  0.7544800  0.2393297

 Al 
  0.7471858  0.4762685  0.2243169

 Al 
  0.7432788  0.7544651  0.0134882

 Al 
  0.4993268  0.0005569  0.5068462

 Al 
  0.5201884  0.2482266  0.7292275

 Al 
  0.7454977  0.9998552  0.7472897

 Al 
  0.7563734  0.2530617  0.4869573

 Al 
  0.4998515  0.4938988  0.4889968

 Al 
  0.4945213  0.7282115  0.7374326

 Al 
  0.7449309  0.5091233  0.7629202

 Al 
  0.7522982  0.7422566  0.4952564

