32 
charge = 0 
 Al 
  0.9974048  0.9935461  0.0168469

 Al 
  0.9944990  0.2616356  0.2505594

 Al 
  0.2639436  0.0036137  0.2369982

 Al 
  0.2613051  0.2676353  0.9958245

 Al 
  0.4943852  0.0235335  0.9993193

 Al 
  0.5018403  0.2463838  0.2609561

 Al 
  0.7465583  0.0020841  0.2668333

 Al 
  0.7504059  0.2457304  0.0060702

 Al 
  0.9967786  0.5040815  0.0001374

 Al 
  0.9856430  0.7397567  0.2505532

 Al 
  0.2593535  0.4905091  0.2814007

 Al 
  0.2526793  0.7350960  0.0018031

 Al 
  0.0144733  0.0147938  0.4909794

 Al 
  0.0026026  0.2650500  0.7604624

 Al 
  0.2577125  0.0014578  0.7717266

 Al 
  0.2503082  0.2499666  0.5196822

 Al 
  0.9720818  0.5116343  0.4895500

 Al 
  0.0021113  0.7460596  0.7421922

 Al 
  0.2377741  0.5016175  0.7442008

 Al 
  0.2525717  0.7590540  0.4942552

 Al 
  0.5037560  0.4762277  0.9868261

 Al 
  0.4981300  0.7544639  0.2396763

 Al 
  0.7475608  0.4762809  0.2238837

 Al 
  0.7433568  0.7542634  0.0139981

 Al 
  0.4985273  0.0000421  0.5070789

 Al 
  0.5199297  0.2479494  0.7289973

 Al 
  0.7453530  0.9999629  0.7475905

 Al 
  0.7567831  0.2532635  0.4871281

 Al 
  0.4994988  0.4940535  0.4891008

 Al 
  0.4949124  0.7284800  0.7376343

 Al 
  0.7450869  0.5096394  0.7627197

 Al 
  0.7526694  0.7421328  0.4950139

