32 
charge = 0 
 Al 
  0.9963999  0.9927219  0.0190263

 Al 
  0.9959643  0.2614425  0.2500891

 Al 
  0.2639572  0.0028848  0.2373620

 Al 
  0.2596220  0.2683667  0.9955794

 Al 
  0.4950337  0.0243156  0.0004208

 Al 
  0.5014455  0.2456698  0.2610502

 Al 
  0.7470026  0.0022635  0.2658086

 Al 
  0.7495619  0.2457601  0.0049131

 Al 
  0.9970521  0.5036508  0.9988862

 Al 
  0.9869969  0.7382209  0.2490397

 Al 
  0.2593696  0.4905735  0.2814910

 Al 
  0.2539169  0.7344896  0.0014752

 Al 
  0.0141713  0.0158445  0.4916885

 Al 
  0.0037164  0.2647134  0.7620737

 Al 
  0.2557373  0.0006262  0.7707502

 Al 
  0.2480843  0.2491684  0.5194409

 Al 
  0.9748453  0.5120885  0.4892443

 Al 
  0.0038946  0.7475137  0.7408656

 Al 
  0.2376739  0.5021051  0.7439359

 Al 
  0.2524627  0.7592124  0.4949000

 Al 
  0.5022573  0.4770271  0.9862618

 Al 
  0.4965262  0.7543290  0.2408470

 Al 
  0.7486313  0.4766064  0.2227192

 Al 
  0.7435771  0.7536322  0.0154435

 Al 
  0.4959990  0.9983417  0.5077459

 Al 
  0.5190226  0.2471573  0.7283996

 Al 
  0.7450015  0.0002302  0.7485496

 Al 
  0.7580565  0.2539008  0.4878174

 Al 
  0.4985261  0.4946203  0.4895364

 Al 
  0.4961598  0.7294577  0.7383521

 Al 
  0.7456722  0.5111913  0.7620044

 Al 
  0.7536619  0.7418766  0.4942825

