32 
charge = 0 
 Al 
  0.9986585  0.9946847  0.0139758

 Al 
  0.9931167  0.2616727  0.2510606

 Al 
  0.2636454  0.0045171  0.2368026

 Al 
  0.2630154  0.2665846  0.9962762

 Al 
  0.4939570  0.0222415  0.9979506

 Al 
  0.5022078  0.2472551  0.2607086

 Al 
  0.7460732  0.0017722  0.2678976

 Al 
  0.7515618  0.2453950  0.0071717

 Al 
  0.9965497  0.5046272  0.0016719

 Al 
  0.9842396  0.7418222  0.2524046

 Al 
  0.2589736  0.4905401  0.2807114

 Al 
  0.2511695  0.7358893  0.0022759

 Al 
  0.0146874  0.0133149  0.4902418

 Al 
  0.0010074  0.2651589  0.7583634

 Al 
  0.2599822  0.0024677  0.7727031

 Al 
  0.2530778  0.2508972  0.5197676

 Al 
  0.9691550  0.5106925  0.4901205

 Al 
  0.9997909  0.7444966  0.7439471

 Al 
  0.2381330  0.5010358  0.7444607

 Al 
  0.2526484  0.7588251  0.4934335

 Al 
  0.5055047  0.4756683  0.9877160

 Al 
  0.5001337  0.7544490  0.2384040

 Al 
  0.7459965  0.4765074  0.2257512

 Al 
  0.7430300  0.7550530  0.0118645

 Al 
  0.5016101  0.0019603  0.5061123

 Al 
  0.5208467  0.2490966  0.7300196

 Al 
  0.7460113  0.9994839  0.7464358

 Al 
  0.7551804  0.2524801  0.4866083

 Al 
  0.5010037  0.4935263  0.4887926

 Al 
  0.4934112  0.7275704  0.7369363

 Al 
  0.7445646  0.5075677  0.7634238

 Al 
  0.7510556  0.7427466  0.4959928

