32 
charge = 0 
 Al 
  0.9935003  0.9906094  0.0249653

 Al 
  0.0017685  0.2601666  0.2483318

 Al 
  0.2628917  0.0006881  0.2392604

 Al 
  0.2534058  0.2698864  0.9954037

 Al 
  0.4979221  0.0255569  0.0036124

 Al 
  0.4999307  0.2435622  0.2610700

 Al 
  0.7484778  0.0025556  0.2622308

 Al 
  0.7474160  0.2449866  0.0003218

 Al 
  0.9982587  0.5025457  0.9949891

 Al 
  0.9921823  0.7341109  0.2444372

 Al 
  0.2582335  0.4911502  0.2797250

 Al 
  0.2576370  0.7328486  0.0006646

 Al 
  0.0125439  0.0182776  0.4942726

 Al 
  0.0062299  0.2625501  0.7665289

 Al 
  0.2492451  0.9981041  0.7673147

 Al 
  0.2415722  0.2467279  0.5179533

 Al 
  0.9848856  0.5121405  0.4890080

 Al 
  0.0088424  0.7527573  0.7373249

 Al 
  0.2382902  0.5036941  0.7428073

 Al 
  0.2518811  0.7594587  0.4967687

 Al 
  0.4974605  0.4808339  0.9851790

 Al 
  0.4918878  0.7532511  0.2449990

 Al 
  0.7510024  0.4795629  0.2207304

 Al 
  0.7439805  0.7517425  0.0186377

 Al 
  0.4883830  0.9927009  0.5092520

 Al 
  0.5154770  0.2453938  0.7274900

 Al 
  0.7447168  0.0005198  0.7514789

 Al 
  0.7617333  0.2558871  0.4909633

 Al 
  0.4966512  0.4968888  0.4916811

 Al 
  0.5000359  0.7334513  0.7411626

 Al 
  0.7481560  0.5153383  0.7591926

 Al 
  0.7554007  0.7420499  0.4922454

