32 
charge = 0 
 Al 
  0.9921303  0.9896911  0.0276669

 Al 
  0.0053673  0.2591778  0.2472254

 Al 
  0.2617210  0.9995582  0.2405871

 Al 
  0.2497451  0.2702205  0.9956277

 Al 
  0.4996832  0.0256027  0.0051495

 Al 
  0.4990211  0.2425585  0.2610465

 Al 
  0.7492451  0.0026212  0.2602396

 Al 
  0.7465163  0.2443072  0.9974580

 Al 
  0.9990619  0.5021633  0.9928989

 Al 
  0.9955076  0.7322199  0.2420561

 Al 
  0.2571395  0.4916465  0.2777672

 Al 
  0.2594946  0.7321457  0.0003131

 Al 
  0.0112358  0.0190708  0.4958331

 Al 
  0.0070578  0.2607915  0.7685684

 Al 
  0.2456636  0.9968455  0.7654398

 Al 
  0.2383979  0.2455547  0.5167974

 Al 
  0.9908977  0.5115366  0.4892530

 Al 
  0.0111480  0.7558920  0.7357656

 Al 
  0.2391218  0.5045777  0.7419979

 Al 
  0.2513997  0.7593758  0.4977080

 Al 
  0.4949074  0.4834389  0.9849203

 Al 
  0.4896676  0.7523340  0.2474494

 Al 
  0.7518093  0.4819279  0.2204990

 Al 
  0.7440213  0.7507933  0.0197156

 Al 
  0.4845478  0.9896317  0.5097842

 Al 
  0.5131627  0.2448097  0.7274269

 Al 
  0.7449681  0.0004047  0.7529739

 Al 
  0.7635278  0.2569997  0.4930771

 Al 
  0.4961970  0.4983070  0.4932058

 Al 
  0.5020729  0.7360564  0.7429583

 Al 
  0.7498168  0.5171959  0.7573734

 Al 
  0.7557497  0.7425412  0.4912195

