32 
charge = 0 
 Al 
  0.9927912  0.9901304  0.0263687

 Al 
  0.0035481  0.2596914  0.2477897

 Al 
  0.2623533  0.0001151  0.2399064

 Al 
  0.2515804  0.2700993  0.9954878

 Al 
  0.4988033  0.0256336  0.0044020

 Al 
  0.4994790  0.2430437  0.2610551

 Al 
  0.7488701  0.0025939  0.2612284

 Al 
  0.7469420  0.2446550  0.9989085

 Al 
  0.9986511  0.5023303  0.9939359

 Al 
  0.9938072  0.7331357  0.2432293

 Al 
  0.2577150  0.4913853  0.2788228

 Al 
  0.2585874  0.7324774  0.0004826

 Al 
  0.0119264  0.0187243  0.4950436

 Al 
  0.0066903  0.2617172  0.7675895

 Al 
  0.2474481  0.9974593  0.7663655

 Al 
  0.2399423  0.2461202  0.5174001

 Al 
  0.9878657  0.5118843  0.4890995

 Al 
  0.0100342  0.7543104  0.7365106

 Al 
  0.2386652  0.5041372  0.7424187

 Al 
  0.2516571  0.7594401  0.4972452

 Al 
  0.4961697  0.4821036  0.9850230

 Al 
  0.4907443  0.7528179  0.2462155

 Al 
  0.7514442  0.4807015  0.2205448

 Al 
  0.7440176  0.7512574  0.0192317

 Al 
  0.4864264  0.9911527  0.5095416

 Al 
  0.5143508  0.2450708  0.7274256

 Al 
  0.7448097  0.0004839  0.7522400

 Al 
  0.7626516  0.2564390  0.4919954

 Al 
  0.4963801  0.4975892  0.4924187

 Al 
  0.5010668  0.7347235  0.7420412

 Al 
  0.7489642  0.5163049  0.7583040

 Al 
  0.7556173  0.7422702  0.4917269

