32 
charge = 0 
 Al 
  0.9931414  0.9903656  0.0256769

 Al 
  0.0026496  0.2599352  0.2480645

 Al 
  0.2626355  0.0004010  0.2395772

 Al 
  0.2524974  0.2700040  0.9954383

 Al 
  0.4983602  0.0256089  0.0040109

 Al 
  0.4997067  0.2432998  0.2610626

 Al 
  0.7486758  0.0025766  0.2617309

 Al 
  0.7471734  0.2448245  0.9996225

 Al 
  0.9984518  0.5024330  0.9944619

 Al 
  0.9929830  0.7336171  0.2438308

 Al 
  0.2579835  0.4912640  0.2792943

 Al 
  0.2581159  0.7326593  0.0005718

 Al 
  0.0122457  0.0185127  0.4946550

 Al 
  0.0064712  0.2621467  0.7670672

 Al 
  0.2483479  0.9977798  0.7668395

 Al 
  0.2407505  0.2464210  0.5176848

 Al 
  0.9863633  0.5120242  0.4890451

 Al 
  0.0094451  0.7535271  0.7369103

 Al 
  0.2384672  0.5039156  0.7426179

 Al 
  0.2517734  0.7594550  0.4970088

 Al 
  0.4968133  0.4814588  0.9850936

 Al 
  0.4913098  0.7530419  0.2456029

 Al 
  0.7512326  0.4801173  0.2206203

 Al 
  0.7440028  0.7514975  0.0189471

 Al 
  0.4873991  0.9919261  0.5094030

 Al 
  0.5149238  0.2452255  0.7274491

 Al 
  0.7447552  0.0005074  0.7518613

 Al 
  0.7621962  0.2561606  0.4914707

 Al 
  0.4965051  0.4972353  0.4920425

 Al 
  0.5005520  0.7340788  0.7415957

 Al 
  0.7485533  0.5158284  0.7587545

 Al 
  0.7555195  0.7421526  0.4919855

