32 
charge = 0 
 Al 
  0.9908148  0.9888298  0.0302398

 Al 
  0.0097396  0.2578251  0.2458109

 Al 
  0.2598337  0.9983157  0.2422999

 Al 
  0.2454817  0.2700881  0.9961908

 Al 
  0.5016534  0.0250594  0.0067187

 Al 
  0.4979209  0.2415932  0.2610737

 Al 
  0.7500260  0.0026583  0.2580268

 Al 
  0.7457168  0.2435164  0.9939471

 Al 
  0.0000780  0.5019974  0.9905388

 Al 
  0.9998292  0.7302980  0.2394485

 Al 
  0.2556210  0.4923741  0.2746510

 Al 
  0.2614153  0.7315690  0.9999653

 Al 
  0.0092755  0.0194310  0.4977650

 Al 
  0.0075343  0.2582248  0.7704903

 Al 
  0.2415660  0.9955745  0.7633867

 Al 
  0.2351517  0.2444211  0.5151874

 Al 
  0.9981833  0.5103658  0.4898817

 Al 
  0.0134090  0.7596765  0.7343127

 Al 
  0.2405190  0.5055913  0.7408606

 Al 
  0.2506250  0.7590020  0.4987414

 Al 
  0.4920957  0.4867853  0.9849092

 Al 
  0.4874326  0.7509863  0.2503874

 Al 
  0.7523798  0.4850824  0.2209680

 Al 
  0.7438889  0.7498008  0.0204099

 Al 
  0.4804874  0.9862346  0.5101752

 Al 
  0.5100874  0.2444520  0.7276905

 Al 
  0.7456029  0.0000322  0.7545716

 Al 
  0.7654163  0.2583882  0.4957948

 Al 
  0.4961066  0.5000458  0.4952242

 Al 
  0.5043302  0.7394436  0.7452861

 Al 
  0.7519999  0.5189755  0.7550022

 Al 
  0.7557745  0.7433605  0.4900463

