32 
charge = 0 
 Al 
  0.9903062  0.9884894  0.0312460

 Al 
  0.0120563  0.2570281  0.2450101

 Al 
  0.2585726  0.9977031  0.2432652

 Al 
  0.2433258  0.2697193  0.9966474

 Al 
  0.5025729  0.0244369  0.0074155

 Al 
  0.4973256  0.2412133  0.2611368

 Al 
  0.7503502  0.0026707  0.2569737

 Al 
  0.7454297  0.2431885  0.9920561

 Al 
  0.0006361  0.5020841  0.9893520

 Al 
  0.0023328  0.7294255  0.2381825

 Al 
  0.2547634  0.4928320  0.2725793

 Al 
  0.2622680  0.7314254  0.9998082

 Al 
  0.0079971  0.0192961  0.4988317

 Al 
  0.0075318  0.2566036  0.7712217

 Al 
  0.2394943  0.9950498  0.7624078

 Al 
  0.2337162  0.2439656  0.5142159

 Al 
  0.0020902  0.5095391  0.4903965

 Al 
  0.0143372  0.7616776  0.7337545

 Al 
  0.2414695  0.5060999  0.7401651

 Al 
  0.2500755  0.7586320  0.4992562

 Al 
  0.4907418  0.4886553  0.9850564

 Al 
  0.4864611  0.7501374  0.2519442

 Al 
  0.7525147  0.4868645  0.2215955

 Al 
  0.7437206  0.7493466  0.0204804

 Al 
  0.4786050  0.9846035  0.5102730

 Al 
  0.5082607  0.2444273  0.7279999

 Al 
  0.7461116  0.9997079  0.7553129

 Al 
  0.7663061  0.2591877  0.4973293

 Al 
  0.4962638  0.5009789  0.4963876

 Al 
  0.5054490  0.7414051  0.7466462

 Al 
  0.7532709  0.5197057  0.7536298

 Al 
  0.7556433  0.7439001  0.4894213

