32 
charge = 0 
 Al 
  0.9900896  0.9883323  0.0316915

 Al 
  0.0134424  0.2565133  0.2445065

 Al 
  0.2576964  0.9973467  0.2438704

 Al 
  0.2420808  0.2693604  0.9969902

 Al 
  0.5030580  0.0239072  0.0077806

 Al 
  0.4969605  0.2410425  0.2611999

 Al 
  0.7505037  0.0026806  0.2564019

 Al 
  0.7453109  0.2430536  0.9909052

 Al 
  0.0009789  0.5022177  0.9886577

 Al 
  0.0039416  0.7289552  0.2374697

 Al 
  0.2542399  0.4931390  0.2711425

 Al 
  0.2627061  0.7314217  0.9997203

 Al 
  0.0071123  0.0190708  0.4994926

 Al 
  0.0074254  0.2555096  0.7715336

 Al 
  0.2382914  0.9948072  0.7618670

 Al 
  0.2329711  0.2437515  0.5135748

 Al 
  0.0044676  0.5089600  0.4907876

 Al 
  0.0147703  0.7628706  0.7335107

 Al 
  0.2421316  0.5063932  0.7397084

 Al 
  0.2496733  0.7583263  0.4995545

 Al 
  0.4899869  0.4898186  0.9852111

 Al 
  0.4859636  0.7495656  0.2528823

 Al 
  0.7525345  0.4879721  0.2221375

 Al 
  0.7435783  0.7491003  0.0203975

 Al 
  0.4775828  0.9837001  0.5102916

 Al 
  0.5070615  0.2444768  0.7282597

 Al 
  0.7464890  0.9994542  0.7557138

 Al 
  0.7668024  0.2597074  0.4982959

 Al 
  0.4964383  0.5015457  0.4971276

 Al 
  0.5060962  0.7426712  0.7475323

 Al 
  0.7540914  0.5200597  0.7527474

 Al 
  0.7555220  0.7442713  0.4890364

