32 
charge = 0 
 Al 
  0.9918247  0.9894906  0.0282647

 Al 
  0.0062744  0.2589104  0.2469395

 Al 
  0.2613732  0.9992909  0.2409324

 Al 
  0.2488429  0.2702440  0.9957168

 Al 
  0.5001101  0.0255470  0.0055010

 Al 
  0.4987934  0.2423345  0.2610452

 Al 
  0.7494221  0.0026323  0.2597607

 Al 
  0.7463244  0.2441340  0.9967328

 Al 
  0.9992686  0.5020989  0.9923952

 Al 
  0.9963727  0.7317905  0.2414918

 Al 
  0.2568388  0.4917863  0.2771905

 Al 
  0.2599240  0.7319997  0.0002351

 Al 
  0.0108670  0.0192020  0.4962279

 Al 
  0.0072039  0.2603015  0.7690176

 Al 
  0.2447936  0.9965583  0.7649931

 Al 
  0.2376702  0.2452923  0.5164831

 Al 
  0.9924076  0.5113324  0.4893532

 Al 
  0.0116653  0.7566779  0.7354252

 Al 
  0.2393755  0.5047943  0.7417776

 Al 
  0.2512598  0.7593263  0.4979296

 Al 
  0.4942985  0.4841159  0.9848906

 Al 
  0.4891627  0.7520766  0.2480607

 Al 
  0.7519615  0.4825603  0.2205287

 Al 
  0.7440114  0.7505730  0.0199136

 Al 
  0.4836530  0.9888966  0.5098869

 Al 
  0.5125538  0.2447045  0.7274516

 Al 
  0.7450696  0.0003490  0.7533253

 Al 
  0.7639436  0.2572806  0.4936266

 Al 
  0.4961376  0.4986659  0.4936080

 Al 
  0.5025593  0.7367358  0.7434236

 Al 
  0.7502525  0.5176068  0.7568994

 Al 
  0.7557868  0.7426910  0.4909732

