32 
charge = 0 
 Al 
  0.9900153  0.9882716  0.0318499

 Al 
  0.0140872  0.2562608  0.2442651

 Al 
  0.2572496  0.9971833  0.2441612

 Al 
  0.2415165  0.2691463  0.9971722

 Al 
  0.5032622  0.0236077  0.0079365

 Al 
  0.4967848  0.2409806  0.2612383

 Al 
  0.7505606  0.0026855  0.2561532

 Al 
  0.7452713  0.2430140  0.9903606

 Al 
  0.0011410  0.5023056  0.9883360

 Al 
  0.0047287  0.7287511  0.2371504

 Al 
  0.2539961  0.4932949  0.2704086

 Al 
  0.2628880  0.7314477  0.9996807

 Al 
  0.0066593  0.0189199  0.4998082

 Al 
  0.0073437  0.2549577  0.7716400

 Al 
  0.2377419  0.9947181  0.7616294

 Al 
  0.2326593  0.2436686  0.5132568

 Al 
  0.0055901  0.5086629  0.4909980

 Al 
  0.0149337  0.7634238  0.7334266

 Al 
  0.2424707  0.5065257  0.7394820

 Al 
  0.2494617  0.7581555  0.4996918

 Al 
  0.4896527  0.4903742  0.9853052

 Al 
  0.4857581  0.7492797  0.2533216

 Al 
  0.7525271  0.4885006  0.2224420

 Al 
  0.7434978  0.7489939  0.0203208

 Al 
  0.4771373  0.9833016  0.5102879

 Al 
  0.5064663  0.2445201  0.7284058

 Al 
  0.7466883  0.9993169  0.7558883

 Al 
  0.7670239  0.2599649  0.4987624

 Al 
  0.4965435  0.5018130  0.4974865

 Al 
  0.5063945  0.7432924  0.7479704

 Al 
  0.7544948  0.5202020  0.7523142

 Al 
  0.7554539  0.7444594  0.4888508

