32 
charge = 0 
 Al 
  0.9899312  0.9881615  0.0320739

 Al 
  0.0158408  0.2555171  0.2435783

 Al 
  0.2558623  0.9967390  0.2449990

 Al 
  0.2400401  0.2683716  0.9977513

 Al 
  0.5037275  0.0225731  0.0082991

 Al 
  0.4962873  0.2408816  0.2613781

 Al 
  0.7506633  0.0027103  0.2555529

 Al 
  0.7452218  0.2430090  0.9888409

 Al 
  0.0015940  0.5026583  0.9874635

 Al 
  0.0070417  0.7282498  0.2363286

 Al 
  0.2533328  0.4937639  0.2681303

 Al 
  0.2632927  0.7316420  0.9995730

 Al 
  0.0052510  0.0183172  0.5006980

 Al 
  0.0069910  0.2532820  0.7717675

 Al 
  0.2362878  0.9945820  0.7610391

 Al 
  0.2319403  0.2435077  0.5123014

 Al 
  0.0087261  0.5077496  0.4916811

 Al 
  0.0152134  0.7649176  0.7333152

 Al 
  0.2435189  0.5068734  0.7388174

 Al 
  0.2487773  0.7575665  0.5000569

 Al 
  0.4888087  0.4919497  0.9856505

 Al 
  0.4852940  0.7484110  0.2545332

 Al 
  0.7524454  0.4899955  0.2234951

 Al 
  0.7432243  0.7487303  0.0199483

 Al 
  0.4760433  0.9823078  0.5102322

 Al 
  0.5046842  0.2447131  0.7289070

 Al 
  0.7473256  0.9988590  0.7563116

 Al 
  0.7675957  0.2607359  0.5001064

 Al 
  0.4969259  0.5025593  0.4985261

 Al 
  0.5071952  0.7451302  0.7492835

 Al 
  0.7556816  0.5204977  0.7510420

 Al 
  0.7552324  0.7450374  0.4883186

