32 
charge = 0 
 Al 
  0.9899646  0.9882234  0.0319662

 Al 
  0.0147010  0.2560121  0.2440300

 Al 
  0.2567942  0.9970286  0.2444471

 Al 
  0.2409893  0.2689112  0.9973590

 Al 
  0.5034417  0.0232872  0.0080739

 Al 
  0.4966153  0.2409336  0.2612804

 Al 
  0.7506064  0.0026929  0.2559292

 Al 
  0.7452440  0.2429929  0.9898359

 Al 
  0.0012970  0.5024095  0.9880315

 Al 
  0.0055072  0.7285654  0.2368546

 Al 
  0.2537622  0.4934496  0.2696624

 Al 
  0.2630464  0.7314923  0.9996436

 Al 
  0.0061990  0.0187441  0.5001139

 Al 
  0.0072435  0.2544032  0.7717130

 Al 
  0.2372259  0.9946513  0.7614128

 Al 
  0.2323833  0.2436006  0.5129387

 Al 
  0.0066729  0.5083634  0.4912158

 Al 
  0.0150611  0.7639486  0.7333659

 Al 
  0.2428147  0.5066494  0.7392580

 Al 
  0.2492426  0.7579711  0.4998206

 Al 
  0.4893458  0.4909138  0.9854104

 Al 
  0.4855774  0.7489914  0.2537424

 Al 
  0.7525098  0.4890129  0.2227711

 Al 
  0.7434112  0.7488961  0.0202193

 Al 
  0.4767338  0.9829377  0.5102767

 Al 
  0.5058735  0.2445733  0.7285617

 Al 
  0.7468937  0.9991721  0.7560455

 Al 
  0.7672293  0.2602223  0.4992191

 Al 
  0.4966611  0.5020704  0.4978380

 Al 
  0.5066754  0.7439087  0.7484085

 Al 
  0.7548933  0.5203208  0.7518873

 Al 
  0.7553822  0.7446500  0.4886701

