32 
charge = 0 
 Al 
  0.9902332  0.9881763  0.0316370

 Al 
  0.0182182  0.2542844  0.2425548

 Al 
  0.2533488  0.9961029  0.2463195

 Al 
  0.2382357  0.2665908  0.9988157

 Al 
  0.5040307  0.0203356  0.0086060

 Al 
  0.4955138  0.2409868  0.2616999

 Al 
  0.7506126  0.0027833  0.2549973

 Al 
  0.7453344  0.2434149  0.9866083

 Al 
  0.0022697  0.5035357  0.9862222

 Al 
  0.0108274  0.7277511  0.2353658

 Al 
  0.2524627  0.4945782  0.2639770

 Al 
  0.2635204  0.7324019  0.9993973

 Al 
  0.0026694  0.0168148  0.5020160

 Al 
  0.0060789  0.2503515  0.7713739

 Al 
  0.2344463  0.9947849  0.7604240

 Al 
  0.2314019  0.2434867  0.5106468

 Al 
  0.0133446  0.5061210  0.4930251

 Al 
  0.0149980  0.7668865  0.7336060

 Al 
  0.2454111  0.5072991  0.7377543

 Al 
  0.2474345  0.7563103  0.5005458

 Al 
  0.4878880  0.4943332  0.9864450

 Al 
  0.4849884  0.7469086  0.2562571

 Al 
  0.7521447  0.4922491  0.2257363

 Al 
  0.7426674  0.7484629  0.0188765

 Al 
  0.4749257  0.9812633  0.5100082

 Al 
  0.5016163  0.2452317  0.7299923

 Al 
  0.7485273  0.9979296  0.7567200

 Al 
  0.7682924  0.2620638  0.5022326

 Al 
  0.4977711  0.5036607  0.5001856

 Al 
  0.5082954  0.7482092  0.7515470

 Al 
  0.7576531  0.5206190  0.7489307

 Al 
  0.7548376  0.7460732  0.4874734

