32 
charge = 0 
 Al 
  0.9899869  0.9881392  0.0320207

 Al 
  0.0168705  0.2550270  0.2431513

 Al 
  0.2548933  0.9964729  0.2455349

 Al 
  0.2392245  0.2677367  0.9981622

 Al 
  0.5039194  0.0217613  0.0084637

 Al 
  0.4959730  0.2408841  0.2614932

 Al 
  0.7506757  0.0027338  0.2552671

 Al 
  0.7452403  0.2431068  0.9879103

 Al 
  0.0018737  0.5029652  0.9869412

 Al 
  0.0085565  0.7280023  0.2358868

 Al 
  0.2529491  0.4940832  0.2665326

 Al 
  0.2634498  0.7318771  0.9995037

 Al 
  0.0042609  0.0177924  0.5012475

 Al 
  0.0066742  0.2521360  0.7716994

 Al 
  0.2354685  0.9945980  0.7607408

 Al 
  0.2316321  0.2434657  0.5116541

 Al 
  0.0106505  0.5071172  0.4921860

 Al 
  0.0152294  0.7657802  0.7333597

 Al 
  0.2442503  0.5070652  0.7383842

 Al 
  0.2482736  0.7571073  0.5002686

 Al 
  0.4883706  0.4929335  0.9859339

 Al 
  0.4851047  0.7478219  0.2552621

 Al 
  0.7523464  0.4909262  0.2243144

 Al 
  0.7430164  0.7486003  0.0195881

 Al 
  0.4754963  0.9818029  0.5101616

 Al 
  0.5034813  0.2448926  0.7293005

 Al 
  0.7477835  0.9985149  0.7565170

 Al 
  0.7679088  0.2612556  0.5009678

 Al 
  0.4972328  0.5030172  0.4991956

 Al 
  0.5076655  0.7463492  0.7501708

 Al 
  0.7564663  0.5205980  0.7502030

 Al 
  0.7550765  0.7454383  0.4879771

