32 
charge = 0 
 Al 
  0.9901292  0.9881541  0.0318066

 Al 
  0.0177937  0.2545344  0.2427479

 Al 
  0.2538773  0.9962230  0.2460596

 Al 
  0.2385352  0.2669992  0.9985941

 Al 
  0.5040171  0.0208406  0.0085714

 Al 
  0.4956661  0.2409398  0.2616269

 Al 
  0.7506448  0.0027647  0.2550666

 Al 
  0.7452948  0.2432899  0.9870316

 Al 
  0.0021397  0.5033303  0.9864549

 Al 
  0.0100688  0.7278192  0.2355218

 Al 
  0.2526137  0.4944112  0.2648532

 Al 
  0.2635179  0.7322026  0.9994344

 Al 
  0.0032152  0.0171662  0.5017672

 Al 
  0.0062930  0.2509566  0.7715125

 Al 
  0.2347607  0.9947008  0.7605131

 Al 
  0.2314477  0.2434694  0.5109896

 Al 
  0.0124684  0.5064601  0.4927343

 Al 
  0.0151094  0.7665425  0.7334996

 Al 
  0.2450151  0.5072286  0.7379610

 Al 
  0.2477254  0.7565913  0.5004579

 Al 
  0.4880266  0.4938753  0.9862631

 Al 
  0.4850057  0.7472180  0.2559378

 Al 
  0.7522189  0.4918160  0.2252351

 Al 
  0.7427887  0.7485013  0.0191364

 Al 
  0.4750842  0.9814155  0.5100651

 Al 
  0.5022487  0.2451092  0.7297473

 Al 
  0.7482724  0.9981350  0.7566667

 Al 
  0.7681748  0.2617903  0.5018130

 Al 
  0.4975806  0.5034503  0.4998564

 Al 
  0.5080937  0.7475818  0.7510792

 Al 
  0.7572546  0.5206277  0.7493589

 Al 
  0.7549181  0.7458554  0.4876405

