32 
charge = 0 
 Al 
  0.9899485  0.9881454  0.0320677

 Al 
  0.0163692  0.2552720  0.2433617

 Al 
  0.2553834  0.9966041  0.2452688

 Al 
  0.2396169  0.2680659  0.9979543

 Al 
  0.5038352  0.0221808  0.0083894

 Al 
  0.4961289  0.2408767  0.2614338

 Al 
  0.7506757  0.0027214  0.2553995

 Al 
  0.7452267  0.2430474  0.9883682

 Al 
  0.0017363  0.5028043  0.9871974

 Al 
  0.0078004  0.7281174  0.2360985

 Al 
  0.2531347  0.4939236  0.2673407

 Al 
  0.2633818  0.7317484  0.9995384

 Al 
  0.0047621  0.0180672  0.5009764

 Al 
  0.0068412  0.2527127  0.7717477

 Al 
  0.2358633  0.9945795  0.7608806

 Al 
  0.2317695  0.2434805  0.5119784

 Al 
  0.0097025  0.5074353  0.4919274

 Al 
  0.0152381  0.7653619  0.7333263

 Al 
  0.2438815  0.5069737  0.7385996

 Al 
  0.2485298  0.7573437  0.5001658

 Al 
  0.4885773  0.4924472  0.9857866

 Al 
  0.4851876  0.7481177  0.2549045

 Al 
  0.7523996  0.4904658  0.2238924

 Al 
  0.7431229  0.7486610  0.0197800

 Al 
  0.4757524  0.9820405  0.5102000

 Al 
  0.5040852  0.2447985  0.7290976

 Al 
  0.7475509  0.9986907  0.7564217

 Al 
  0.7677590  0.2609945  0.5005396

 Al 
  0.4970744  0.5027919  0.4988627

 Al 
  0.5074353  0.7457391  0.7497253

 Al 
  0.7560740  0.5205559  0.7506225

 Al 
  0.7551557  0.7452366  0.4881466

