32 
charge = 0 
 Al 
  0.9899374  0.9881875  0.0320405

 Al 
  0.0152864  0.2557633  0.2438010

 Al 
  0.2563326  0.9968801  0.2447255

 Al 
  0.2404980  0.2686525  0.9975521

 Al 
  0.5035976  0.0229419  0.0081939

 Al 
  0.4964494  0.2409002  0.2613274

 Al 
  0.7506411  0.0027004  0.2557299

 Al 
  0.7452280  0.2429904  0.9893297

 Al 
  0.0014479  0.5025271  0.9877407

 Al 
  0.0062782  0.7283996  0.2365811

 Al 
  0.2535419  0.4936068  0.2689038

 Al 
  0.2631813  0.7315566  0.9996077

 Al 
  0.0057299  0.0185424  0.5004109

 Al 
  0.0071259  0.2538451  0.7717551

 Al 
  0.2367408  0.9946055  0.7612160

 Al 
  0.2321444  0.2435473  0.5126207

 Al 
  0.0077174  0.5080590  0.4914435

 Al 
  0.0151540  0.7644461  0.7333288

 Al 
  0.2431637  0.5067658  0.7390364

 Al 
  0.2490137  0.7577756  0.4999418

 Al 
  0.4890637  0.4914385  0.9855255

 Al 
  0.4854240  0.7487030  0.2541458

 Al 
  0.7524813  0.4895117  0.2231214

 Al 
  0.7433209  0.7488095  0.0200955

 Al 
  0.4763700  0.9826073  0.5102582

 Al 
  0.5052794  0.2446389  0.7287288

 Al 
  0.7471066  0.9990199  0.7561866

 Al 
  0.7674199  0.2604784  0.4996659

 Al 
  0.4967885  0.5023192  0.4981845

 Al 
  0.5069415  0.7445201  0.7488454

 Al 
  0.7552881  0.5204185  0.7514640

 Al 
  0.7553091  0.7448418  0.4884931

