32 
charge = 0 
 Al 
  0.9908767  0.9883471  0.0305294

 Al 
  0.0196686  0.2532560  0.2418445

 Al 
  0.2510618  0.9956265  0.2473751

 Al 
  0.2373274  0.2646466  0.9997401

 Al 
  0.5038550  0.0179818  0.0086134

 Al 
  0.4949087  0.2413036  0.2620415

 Al 
  0.7503762  0.0028872  0.2549156

 Al 
  0.7455621  0.2441599  0.9850119

 Al 
  0.0027771  0.5045122  0.9853349

 Al 
  0.0139226  0.7276447  0.2349253

 Al 
  0.2519789  0.4952750  0.2601666

 Al 
  0.2633001  0.7334835  0.9992228

 Al 
  0.0002995  0.0151267  0.5029466

 Al 
  0.0050653  0.2477959  0.7705151

 Al 
  0.2334513  0.9953530  0.7602297

 Al 
  0.2315121  0.2436426  0.5091889

 Al 
  0.0166786  0.5046743  0.4943245

 Al 
  0.0141973  0.7680164  0.7343003

 Al 
  0.2471152  0.5075145  0.7369573

 Al 
  0.2461277  0.7550208  0.5008576

 Al 
  0.4875588  0.4961004  0.9873076

 Al 
  0.4851381  0.7456141  0.2574340

 Al 
  0.7517858  0.4939298  0.2280506

 Al 
  0.7421316  0.7483788  0.0175858

 Al 
  0.4745953  0.9809316  0.5097161

 Al 
  0.4989345  0.2458170  0.7311532

 Al 
  0.7496349  0.9970039  0.7568054

 Al 
  0.7686587  0.2632308  0.5039132

 Al 
  0.4986511  0.5044639  0.5015148

 Al 
  0.5090317  0.7508267  0.7535283

 Al 
  0.7593015  0.5204272  0.7471524

 Al 
  0.7545183  0.7470076  0.4867977

