32 
charge = 0 
 Al 
  0.9925511  0.9888471  0.0274553

 Al 
  0.0210274  0.2515729  0.2410079

 Al 
  0.2470150  0.9948654  0.2490743

 Al 
  0.2368546  0.2606851  0.0011670

 Al 
  0.5028711  0.0133075  0.0082570

 Al 
  0.4939817  0.2421712  0.2626850

 Al 
  0.7496894  0.0031533  0.2553463

 Al 
  0.7460695  0.2460893  0.9828647

 Al 
  0.0035654  0.5064477  0.9840503

 Al 
  0.0187986  0.7280370  0.2348201

 Al 
  0.2516262  0.4963900  0.2533464

 Al 
  0.2622383  0.7361059  0.9988082

 Al 
  0.9961079  0.0116863  0.5041198

 Al 
  0.0030951  0.2435028  0.7682602

 Al 
  0.2327707  0.9969247  0.7603844

 Al 
  0.2325689  0.2440770  0.5066333

 Al 
  0.0212700  0.5021694  0.4966932

 Al 
  0.0118682  0.7689025  0.7362544

 Al 
  0.2500978  0.5076221  0.7359599

 Al 
  0.2437119  0.7525803  0.5012462

 Al 
  0.4877754  0.4986152  0.9890451

 Al 
  0.4860378  0.7434706  0.2589005

 Al 
  0.7510903  0.4963925  0.2325726

 Al 
  0.7411947  0.7484394  0.0148582

 Al 
  0.4750062  0.9812621  0.5090961

 Al 
  0.4942985  0.2469803  0.7335516

 Al 
  0.7515482  0.9952663  0.7565393

 Al 
  0.7688939  0.2652319  0.5065046

 Al 
  0.5003725  0.5056185  0.5036124

 Al 
  0.5099599  0.7552200  0.7569316

 Al 
  0.7619858  0.5197045  0.7441872

 Al 
  0.7540592  0.7486585  0.4857656

