32 
charge = 0 
 Al 
  0.9910957  0.9884102  0.0301396

 Al 
  0.0199668  0.2529875  0.2416836

 Al 
  0.2504406  0.9955064  0.2476462

 Al 
  0.2371727  0.2640760  0.9999790

 Al 
  0.5037523  0.0173011  0.0085837

 Al 
  0.4947552  0.2414150  0.2621380

 Al 
  0.7502896  0.0029219  0.2549428

 Al 
  0.7456351  0.2444112  0.9846319

 Al 
  0.0029033  0.5047956  0.9851183

 Al 
  0.0147159  0.7276608  0.2348597

 Al 
  0.2518885  0.4954557  0.2591270

 Al 
  0.2631850  0.7338312  0.9991696

 Al 
  0.9996547  0.0146305  0.5031620

 Al 
  0.0047720  0.2471190  0.7702218

 Al 
  0.2332669  0.9955547  0.7602198

 Al 
  0.2316135  0.2437020  0.5087966

 Al 
  0.0174769  0.5042857  0.4946847

 Al 
  0.0139053  0.7682355  0.7345453

 Al 
  0.2475756  0.5075504  0.7367705

 Al 
  0.2457638  0.7546557  0.5009282

 Al 
  0.4875340  0.4965299  0.9875588

 Al 
  0.4852297  0.7452725  0.2577038

 Al 
  0.7516806  0.4943431  0.2287139

 Al 
  0.7419843  0.7483738  0.0171984

 Al 
  0.4745879  0.9809168  0.5096282

 Al 
  0.4982167  0.2459878  0.7314935

 Al 
  0.7499344  0.9967440  0.7567942

 Al 
  0.7687243  0.2635426  0.5043389

 Al 
  0.4989035  0.5046594  0.5018539

 Al 
  0.5092000  0.7515185  0.7540580

 Al 
  0.7597310  0.5203418  0.7466858

 Al 
  0.7544404  0.7472600  0.4866269

