32 
charge = 0 
 Al 
  0.9913395  0.9884820  0.0297003

 Al 
  0.0202391  0.2527140  0.2415301

 Al 
  0.2497983  0.9953839  0.2479209

 Al 
  0.2370477  0.2634709  0.0002178

 Al 
  0.5036248  0.0165821  0.0085417

 Al 
  0.4946018  0.2415400  0.2622395

 Al 
  0.7501918  0.0029590  0.2549886

 Al 
  0.7457143  0.2446909  0.9842607

 Al 
  0.0030320  0.5050963  0.9849042

 Al 
  0.0155178  0.7276954  0.2348126

 Al 
  0.2518106  0.4956401  0.2580479

 Al 
  0.2630464  0.7342149  0.9991102

 Al 
  0.9989877  0.0141033  0.5033711

 Al 
  0.0044651  0.2464259  0.7698951

 Al 
  0.2331110  0.9957811  0.7602247

 Al 
  0.2317447  0.2437664  0.5083907

 Al 
  0.0182627  0.5038859  0.4950584

 Al 
  0.0135748  0.7684261  0.7348225

 Al 
  0.2480508  0.5075801  0.7365898

 Al 
  0.2453839  0.7542733  0.5009962

 Al 
  0.4875328  0.4969556  0.9878249

 Al 
  0.4853460  0.7449248  0.2579637

 Al 
  0.7515717  0.4947540  0.2294131

 Al 
  0.7418333  0.7483751  0.0167838

 Al 
  0.4746114  0.9809304  0.5095329

 Al 
  0.4974766  0.2461685  0.7318573

 Al 
  0.7502413  0.9964717  0.7567695

 Al 
  0.7687812  0.2638632  0.5047671

 Al 
  0.4991696  0.5048537  0.5021967

 Al 
  0.5093634  0.7522251  0.7546037

 Al 
  0.7601666  0.5202416  0.7462081

 Al 
  0.7543624  0.7475224  0.4864549

