32 
charge = 0 
 Al 
  0.9905091  0.9882444  0.0311717

 Al 
  0.0189929  0.2537783  0.2421873

 Al 
  0.2522425  0.9958641  0.2468430

 Al 
  0.2377234  0.2656824  0.9992711

 Al 
  0.5039899  0.0192292  0.0086345

 Al 
  0.4952119  0.2411193  0.2618608

 Al 
  0.7505161  0.0028291  0.2549181

 Al 
  0.7454346  0.2437367  0.9857928

 Al 
  0.0025234  0.5039924  0.9857717

 Al 
  0.0123608  0.7276645  0.2351096

 Al 
  0.2521979  0.4949210  0.2621368

 Al 
  0.2634560  0.7328833  0.9993169

 Al 
  0.0015247  0.0160277  0.5024949

 Al 
  0.0056037  0.2491028  0.7710076

 Al 
  0.2338968  0.9950225  0.7602953

 Al 
  0.2313982  0.2435486  0.5099389

 Al 
  0.0150426  0.5054168  0.4936476

 Al 
  0.0146701  0.7675016  0.7338981

 Al 
  0.2462378  0.5074204  0.7373484

 Al 
  0.2468108  0.7556990  0.5007079

 Al 
  0.4876776  0.4952280  0.9868484

 Al 
  0.4850193  0.7462737  0.2568660

 Al 
  0.7519764  0.4930969  0.2268291

 Al 
  0.7424088  0.7484073  0.0182813

 Al 
  0.4747005  0.9810430  0.5098745

 Al 
  0.5003094  0.2455052  0.7305344

 Al 
  0.7490644  0.9974890  0.7567893

 Al 
  0.7684954  0.2626318  0.5030704

 Al 
  0.4981870  0.5040679  0.5008453

 Al 
  0.5086766  0.7494926  0.7525123

 Al 
  0.7584649  0.5205534  0.7480570

 Al 
  0.7546780  0.7465249  0.4871368

