32 
charge = 0 
 Al 
  0.9940931  0.9893136  0.0244641

 Al 
  0.0212588  0.2503874  0.2406675

 Al 
  0.2439731  0.9942948  0.2503044

 Al 
  0.2371640  0.2573796  0.0020271

 Al 
  0.5017536  0.0094896  0.0078164

 Al 
  0.4933790  0.2429830  0.2631602

 Al 
  0.7490199  0.0034243  0.2559403

 Al 
  0.7464519  0.2479073  0.9816692

 Al 
  0.0041434  0.5079761  0.9832125

 Al 
  0.0220571  0.7287226  0.2351530

 Al 
  0.2516571  0.4971190  0.2481412

 Al 
  0.2610403  0.7385563  0.9983788

 Al 
  0.9929867  0.0088449  0.5046879

 Al 
  0.0015767  0.2404460  0.7661465

 Al 
  0.2329167  0.9983998  0.7607297

 Al 
  0.2338498  0.2444198  0.5046941

 Al 
  0.0239666  0.5003119  0.4984840

 Al 
  0.0096035  0.7688679  0.7382011

 Al 
  0.2523303  0.5075417  0.7355638

 Al 
  0.2418630  0.7507054  0.5014715

 Al 
  0.4884214  0.5001683  0.9904844

 Al 
  0.4870823  0.7419781  0.2596319

 Al 
  0.7505730  0.4979976  0.2362259

 Al 
  0.7405475  0.7485805  0.0125674

 Al 
  0.4758712  0.9820244  0.5085775

 Al 
  0.4908383  0.2479023  0.7356245

 Al 
  0.7529145  0.9939273  0.7561098

 Al 
  0.7688072  0.2666799  0.5082261

 Al 
  0.5017734  0.5063623  0.5050703

 Al 
  0.5104426  0.7583969  0.7594166

 Al 
  0.7638595  0.5189867  0.7420326

 Al 
  0.7537832  0.7499059  0.4851171

