32 
charge = 0 
 Al 
  0.9966487  0.9900933  0.0191228

 Al 
  0.0204309  0.2487402  0.2405834

 Al 
  0.2395042  0.9933976  0.2521682

 Al 
  0.2384870  0.2520259  0.0029070

 Al 
  0.4996423  0.0034738  0.0070504

 Al 
  0.4926365  0.2443456  0.2637889

 Al 
  0.7478306  0.0039701  0.2570195

 Al 
  0.7469358  0.2510631  0.9804886

 Al 
  0.0050480  0.5102433  0.9820912

 Al 
  0.0262091  0.7303190  0.2362222

 Al 
  0.2520692  0.4979778  0.2402777

 Al 
  0.2587694  0.7428840  0.9974915

 Al 
  0.9884647  0.0043030  0.5050715

 Al 
  0.9993812  0.2362086  0.7624759

 Al 
  0.2340045  0.0008552  0.7613831

 Al 
  0.2363645  0.2448332  0.5017450

 Al 
  0.0269900  0.4975620  0.5010952

 Al 
  0.0056507  0.7678518  0.7417640

 Al 
  0.2556606  0.5072212  0.7356344

 Al 
  0.2391788  0.7479927  0.5017759

 Al 
  0.4900240  0.5020902  0.9927937

 Al 
  0.4890797  0.7399819  0.2602210

 Al 
  0.7498886  0.5001535  0.2419633

 Al 
  0.7397951  0.7488515  0.0089166

 Al 
  0.4778390  0.9837817  0.5077372

 Al 
  0.4856765  0.2492995  0.7391664

 Al 
  0.7547696  0.9919695  0.7552101

 Al 
  0.7682763  0.2686686  0.5104698

 Al 
  0.5039961  0.5073709  0.5071358

 Al 
  0.5108311  0.7629164  0.7629177

 Al 
  0.7664497  0.5177813  0.7389003

 Al 
  0.7534714  0.7517722  0.4844080

