32 
charge = 0 
 Al 
  0.9970596  0.9902208  0.0182058

 Al 
  0.0201624  0.2485038  0.2406193

 Al 
  0.2388322  0.9932516  0.2524652

 Al 
  0.2387852  0.2511559  0.0029924

 Al 
  0.4992711  0.0025246  0.0069328

 Al 
  0.4925437  0.2445683  0.2638706

 Al 
  0.7476264  0.0040741  0.2571927

 Al 
  0.7469952  0.2515940  0.9803772

 Al 
  0.0051953  0.5105824  0.9819316

 Al 
  0.0267512  0.7306309  0.2364536

 Al 
  0.2521694  0.4980781  0.2390587

 Al 
  0.2583709  0.7436241  0.9973194

 Al 
  0.9877914  0.0035728  0.5050765

 Al 
  0.9990582  0.2355997  0.7618546

 Al 
  0.2342693  0.0012487  0.7614846

 Al 
  0.2368175  0.2448790  0.5012834

 Al 
  0.0273415  0.4971400  0.5014851

 Al 
  0.0049874  0.7675870  0.7423865

 Al 
  0.2561742  0.5071519  0.7357321

 Al 
  0.2387852  0.7475954  0.5018242

 Al 
  0.4903421  0.5023477  0.9931649

 Al 
  0.4894300  0.7397084  0.2602569

 Al 
  0.7497995  0.5004641  0.2428741

 Al 
  0.7397171  0.7488949  0.0083362

 Al 
  0.4782127  0.9841171  0.5075986

 Al 
  0.4848807  0.2495136  0.7397691

 Al 
  0.7550270  0.9916823  0.7550480

 Al 
  0.7681451  0.2689446  0.5107755

 Al 
  0.5043500  0.5075194  0.5074464

 Al 
  0.5108460  0.7635798  0.7634214

 Al 
  0.7668247  0.5175882  0.7384288

 Al 
  0.7534355  0.7520581  0.4843349

