32 
charge = 0 
 Al 
  0.9989109  0.9908136  0.0137530

 Al 
  0.0183691  0.2475236  0.2409732

 Al 
  0.2359599  0.9925796  0.2538612

 Al 
  0.2404881  0.2471041  0.0031607

 Al 
  0.4974370  0.9982575  0.0064613

 Al 
  0.4922244  0.2455869  0.2641441

 Al 
  0.7466289  0.0046248  0.2579464

 Al 
  0.7471845  0.2541335  0.9801817

 Al 
  0.0058846  0.5120105  0.9812571

 Al 
  0.0286892  0.7322831  0.2377754

 Al 
  0.2527511  0.4983714  0.2336270

 Al 
  0.2564279  0.7472142  0.9963752

 Al 
  0.9849352  0.0001955  0.5048624

 Al 
  0.9977192  0.2331097  0.7588609

 Al 
  0.2358349  0.0029986  0.7618596

 Al 
  0.2390971  0.2449866  0.4991882

 Al 
  0.0284355  0.4952601  0.5031533

 Al 
  0.0018662  0.7659584  0.7454371

 Al 
  0.2584674  0.5067794  0.7365712

 Al 
  0.2371826  0.7459544  0.5020742

 Al 
  0.4920573  0.5033513  0.9948616

 Al 
  0.4911452  0.7386577  0.2602062

 Al 
  0.7495087  0.5017908  0.2470162

 Al 
  0.7395884  0.7490694  0.0057188

 Al 
  0.4801470  0.9858497  0.5069452

 Al 
  0.4813475  0.2504567  0.7427083

 Al 
  0.7560282  0.9904943  0.7542399

 Al 
  0.7673321  0.2700126  0.5119598

 Al 
  0.5059552  0.5081729  0.5088102

 Al 
  0.5106864  0.7663482  0.7654448

 Al 
  0.7683914  0.5167281  0.7363831

 Al 
  0.7533191  0.7533216  0.4841827

