32 
charge = 0 
 Al 
  0.9974593  0.9903445  0.0172949

 Al 
  0.0198616  0.2482798  0.2406675

 Al 
  0.2381924  0.9931093  0.2527573

 Al 
  0.2390995  0.2503032  0.0030593

 Al 
  0.4988998  0.0016039  0.0068202

 Al 
  0.4924608  0.2447849  0.2639436

 Al 
  0.7474222  0.0041805  0.2573610

 Al 
  0.7470472  0.2521199  0.9802918

 Al 
  0.0053401  0.5109042  0.9817794

 Al 
  0.0272425  0.7309514  0.2366974

 Al 
  0.2522771  0.4981647  0.2378818

 Al 
  0.2579749  0.7443604  0.9971425

 Al 
  0.9871516  0.0028575  0.5050641

 Al 
  0.9987538  0.2350280  0.7612383

 Al 
  0.2345515  0.0016299  0.7615774

 Al 
  0.2372729  0.2449173  0.5008354

 Al 
  0.0276484  0.4967328  0.5018576

 Al 
  0.0043339  0.7672986  0.7430065

 Al 
  0.2566705  0.5070789  0.7358547

 Al 
  0.2384152  0.7472204  0.5018737

 Al 
  0.4906700  0.5025840  0.9935263

 Al 
  0.4897802  0.7394547  0.2602767

 Al 
  0.7497203  0.5007599  0.2437590

 Al 
  0.7396552  0.7489357  0.0077731

 Al 
  0.4785926  0.9844575  0.5074637

 Al 
  0.4841134  0.2497203  0.7403681

 Al 
  0.7552658  0.9914088  0.7548834

 Al 
  0.7680028  0.2692020  0.5110589

 Al 
  0.5046941  0.5076617  0.5077434

 Al 
  0.5108460  0.7642072  0.7638929

 Al 
  0.7671798  0.5174014  0.7379771

 Al 
  0.7534033  0.7523353  0.4842768

