32 
charge = 0 
 Al 
  0.0003787  0.9913420  0.0095973

 Al 
  0.0159349  0.2468702  0.2415586

 Al 
  0.2339055  0.9920165  0.2551309

 Al 
  0.2424484  0.2435560  0.0029900

 Al 
  0.4956661  0.9948443  0.0062497

 Al 
  0.4921316  0.2464383  0.2641825

 Al 
  0.7456809  0.0052064  0.2584526

 Al 
  0.7472155  0.2564428  0.9805047

 Al 
  0.0064873  0.5129820  0.9807844

 Al 
  0.0293587  0.7340156  0.2393322

 Al 
  0.2533934  0.4983367  0.2292807

 Al 
  0.2546186  0.7505557  0.9952775

 Al 
  0.9829278  0.9972873  0.5043055

 Al 
  0.9968207  0.2314972  0.7560789

 Al 
  0.2377160  0.0043154  0.7619450

 Al 
  0.2413494  0.2449012  0.4974296

 Al 
  0.0285543  0.4937429  0.5043686

 Al 
  0.9991622  0.7639362  0.7483219

 Al 
  0.2603077  0.5064205  0.7379400

 Al 
  0.2362061  0.7448926  0.5023699

 Al 
  0.4939458  0.5039689  0.9962675

 Al 
  0.4927454  0.7381442  0.2598485

 Al 
  0.7494864  0.5027907  0.2504715

 Al 
  0.7399213  0.7491547  0.0036050

 Al 
  0.4821271  0.9876132  0.5063462

 Al 
  0.4785506  0.2511695  0.7455175

 Al 
  0.7565467  0.9897567  0.7534875

 Al 
  0.7662665  0.2705324  0.5126046

 Al 
  0.5072682  0.5087025  0.5098993

 Al 
  0.5101121  0.7682070  0.7666254

 Al 
  0.7694743  0.5160598  0.7348634

 Al 
  0.7532944  0.7543018  0.4843646

