32 
charge = 0 
 Al 
  0.9995446  0.9910301  0.0120588

 Al 
  0.0174670  0.2472266  0.2411836

 Al 
  0.2350453  0.9923407  0.2543797

 Al 
  0.2412455  0.2456314  0.0031261

 Al 
  0.4967229  0.9967960  0.0063413

 Al 
  0.4921613  0.2459457  0.2641874

 Al 
  0.7462452  0.0048550  0.2581803

 Al 
  0.7472130  0.2550814  0.9802547

 Al 
  0.0061358  0.5124524  0.9810455

 Al 
  0.0291025  0.7329687  0.2383706

 Al 
  0.2530048  0.4983949  0.2317695

 Al 
  0.2556891  0.7485780  0.9959556

 Al 
  0.9840354  0.9989815  0.5046780

 Al 
  0.9973095  0.2323660  0.7577273

 Al 
  0.2365526  0.0035790  0.7619338

 Al 
  0.2400005  0.2449743  0.4984493

 Al 
  0.0285889  0.4946154  0.5036892

 Al 
  0.0007339  0.7651923  0.7466116

 Al 
  0.2592533  0.5066321  0.7370576

 Al 
  0.2367172  0.7454643  0.5021843

 Al 
  0.4927900  0.5036372  0.9954581

 Al 
  0.4917987  0.7383904  0.2600948

 Al 
  0.7494666  0.5022239  0.2484728

 Al 
  0.7396651  0.7491151  0.0048166

 Al 
  0.4809341  0.9865526  0.5067002

 Al 
  0.4801458  0.2507685  0.7438419

 Al 
  0.7562918  0.9901453  0.7539317

 Al 
  0.7669385  0.2702861  0.5122779

 Al 
  0.5065145  0.5083969  0.5092731

 Al 
  0.5105081  0.7671959  0.7660165

 Al 
  0.7688790  0.5164385  0.7357161

 Al 
  0.7533006  0.7537461  0.4842174

