32 
charge = 0 
 Al 
  0.0016868  0.9919695  0.0047745

 Al 
  0.0121578  0.2464272  0.2425090

 Al 
  0.2323585  0.9914930  0.2566135

 Al 
  0.2451252  0.2396837  0.0024999

 Al 
  0.4935350  0.9916514  0.0064180

 Al 
  0.4922949  0.2473108  0.2638991

 Al 
  0.7445448  0.0059440  0.2586951

 Al 
  0.7471016  0.2590664  0.9814811

 Al 
  0.0071234  0.5135798  0.9804539

 Al 
  0.0285976  0.7362098  0.2415561

 Al 
  0.2541731  0.4979159  0.2251114

 Al 
  0.2525358  0.7543995  0.9937033

 Al 
  0.9815034  0.9941983  0.5032313

 Al 
  0.9962316  0.2305356  0.7528204

 Al 
  0.2403978  0.0053265  0.7615069

 Al 
  0.2441117  0.2445721  0.4956042

 Al 
  0.0276459  0.4922417  0.5053562

 Al 
  0.9963913  0.7610032  0.7516472

 Al 
  0.2620588  0.5060628  0.7402864

 Al 
  0.2358212  0.7442713  0.5028798

 Al 
  0.4965633  0.5043760  0.9976511

 Al 
  0.4945683  0.7381850  0.2590862

 Al 
  0.7498416  0.5037127  0.2540023

 Al 
  0.7409732  0.7491411  0.0016002

 Al 
  0.4846493  0.9898285  0.5056569

 Al 
  0.4759888  0.2517611  0.7489159

 Al 
  0.7565665  0.9894547  0.7526558

 Al 
  0.7645451  0.2704297  0.5127741

 Al 
  0.5085231  0.5092557  0.5109883

 Al 
  0.5088127  0.7693827  0.7669744

 Al 
  0.7702428  0.5154386  0.7336295

 Al 
  0.7533303  0.7551755  0.4850181

