32 
charge = 0 
 Al 
  0.0014999  0.9918606  0.0055839

 Al 
  0.0128620  0.2464791  0.2423321

 Al 
  0.2325541  0.9915685  0.2563623

 Al 
  0.2446500  0.2403173  0.0025976

 Al 
  0.4938963  0.9921303  0.0063536

 Al 
  0.4922454  0.2471709  0.2639733

 Al 
  0.7447391  0.0058165  0.2586852

 Al 
  0.7471301  0.2586295  0.9812744

 Al 
  0.0070219  0.5135228  0.9804911

 Al 
  0.0288426  0.7358311  0.2411527

 Al 
  0.2540444  0.4980125  0.2257487

 Al 
  0.2528848  0.7537585  0.9939892

 Al 
  0.9816717  0.9946958  0.5034417

 Al 
  0.9962960  0.2306284  0.7533724

 Al 
  0.2399126  0.0051990  0.7616306

 Al 
  0.2436377  0.2446426  0.4958962

 Al 
  0.0278711  0.4924769  0.5052213

 Al 
  0.9968257  0.7615366  0.7510940

 Al 
  0.2617940  0.5061148  0.7398359

 Al 
  0.2358262  0.7443307  0.5027783

 Al 
  0.4960893  0.5043265  0.9974382

 Al 
  0.4942664  0.7381281  0.2592384

 Al 
  0.7497512  0.5035741  0.2534429

 Al 
  0.7407443  0.7491510  0.0019034

 Al 
  0.4842087  0.9894436  0.5057720

 Al 
  0.4763638  0.2516806  0.7483330

 Al 
  0.7566086  0.9894597  0.7527907

 Al 
  0.7648755  0.2705039  0.5127877

 Al 
  0.5083337  0.5091666  0.5108163

 Al 
  0.5090812  0.7692614  0.7669967

 Al 
  0.7701512  0.5155339  0.7337954

 Al 
  0.7533216  0.7550493  0.4848733

