32 
charge = 0 
 Al 
  0.0018625  0.9920833  0.0039577

 Al 
  0.0114190  0.2463826  0.2426947

 Al 
  0.2321853  0.9914225  0.2568672

 Al 
  0.2456153  0.2390513  0.0023984

 Al 
  0.4931687  0.9911923  0.0064984

 Al 
  0.4923531  0.2474481  0.2638124

 Al 
  0.7443468  0.0060727  0.2586914

 Al 
  0.7470707  0.2595070  0.9817064

 Al 
  0.0072237  0.5136181  0.9804255

 Al 
  0.0283031  0.7365960  0.2419756

 Al 
  0.2543005  0.4978083  0.2244938

 Al 
  0.2521831  0.7550443  0.9934075

 Al 
  0.9813611  0.9937033  0.5030085

 Al 
  0.9961796  0.2304676  0.7522610

 Al 
  0.2409014  0.0054366  0.7613583

 Al 
  0.2445943  0.2444941  0.4953158

 Al 
  0.0273922  0.4920115  0.5054799

 Al 
  0.9959668  0.7604487  0.7522016

 Al 
  0.2623137  0.5060121  0.7407628

 Al 
  0.2358386  0.7442280  0.5029912

 Al 
  0.4970583  0.5044193  0.9978590

 Al 
  0.4948715  0.7382605  0.2589228

 Al 
  0.7499468  0.5038463  0.2545542

 Al 
  0.7412244  0.7491275  0.0013069

 Al 
  0.4851022  0.9902233  0.5055406

 Al 
  0.4756324  0.2518341  0.7495087

 Al 
  0.7565059  0.9894671  0.7525234

 Al 
  0.7641948  0.2703307  0.5127432

 Al 
  0.5087063  0.5093436  0.5111579

 Al 
  0.5085206  0.7694755  0.7669187

 Al 
  0.7703195  0.5153458  0.7334785

 Al 
  0.7533377  0.7552955  0.4851802

