32 
charge = 0 
 Al 
  0.0006287  0.9914435  0.0087904

 Al 
  0.0153742  0.2467724  0.2416984

 Al 
  0.2335825  0.9919175  0.2553760

 Al 
  0.2428667  0.2428914  0.0029256

 Al 
  0.4953146  0.9942528  0.0062435

 Al 
  0.4921378  0.2465930  0.2641614

 Al 
  0.7454953  0.0053252  0.2585219

 Al 
  0.7472068  0.2568858  0.9806247

 Al 
  0.0065987  0.5131244  0.9807114

 Al 
  0.0293488  0.7343708  0.2396725

 Al 
  0.2535246  0.4982934  0.2285196

 Al 
  0.2542696  0.7512017  0.9950361

 Al 
  0.9826197  0.9967502  0.5041570

 Al 
  0.9966870  0.2312683  0.7555381

 Al 
  0.2381281  0.0045258  0.7619177

 Al 
  0.2418011  0.2448629  0.4971103

 Al 
  0.0284776  0.4934743  0.5045641

 Al 
  0.9986696  0.7634882  0.7488812

 Al 
  0.2606294  0.5063549  0.7382753

 Al 
  0.2360836  0.7447428  0.5024405

 Al 
  0.4943493  0.5040580  0.9965187

 Al 
  0.4930536  0.7381008  0.2597458

 Al 
  0.7495161  0.5029615  0.2510965

 Al 
  0.7400450  0.7491609  0.0032362

 Al 
  0.4825318  0.9879697  0.5062299

 Al 
  0.4780692  0.2512871  0.7460732

 Al 
  0.7565950  0.9896626  0.7533439

 Al 
  0.7660178  0.2705708  0.5126751

 Al 
  0.5074984  0.5087991  0.5100923

 Al 
  0.5099451  0.7684780  0.7667640

 Al 
  0.7696401  0.5159448  0.7346171

 Al 
  0.7532969  0.7544676  0.4844389

