32 
charge = 0 
 Al 
  0.0025630  0.9927330  0.9996782

 Al 
  0.0071296  0.2462786  0.2437491

 Al 
  0.2316705  0.9911514  0.2582112

 Al 
  0.2482922  0.2358274  0.0018440

 Al 
  0.4912616  0.9891305  0.0071754

 Al 
  0.4928073  0.2481461  0.2631714

 Al 
  0.7432788  0.0067670  0.2584488

 Al 
  0.7468801  0.2617964  0.9831333

 Al 
  0.0077113  0.5135092  0.9804279

 Al 
  0.0260334  0.7386540  0.2443382

 Al 
  0.2549181  0.4971190  0.2216215

 Al 
  0.2503205  0.7583634  0.9917640

 Al 
  0.9810777  0.9912356  0.5016831

 Al 
  0.9961252  0.2305319  0.7492822

 Al 
  0.2437280  0.0057287  0.7601839

 Al 
  0.2471759  0.2440139  0.4938852

 Al 
  0.0256732  0.4909027  0.5059477

 Al 
  0.9939595  0.7573387  0.7550233

 Al 
  0.2634548  0.5058128  0.7435857

 Al 
  0.2363187  0.7442453  0.5037003

 Al 
  0.4998936  0.5045703  0.9988280

 Al 
  0.4964173  0.7389622  0.2579241

 Al 
  0.7507042  0.5044577  0.2572694

 Al 
  0.7428679  0.7490335  0.9999765

 Al 
  0.4876095  0.9923865  0.5049428

 Al 
  0.4741609  0.2521014  0.7526892

 Al 
  0.7558846  0.9898297  0.7518687

 Al 
  0.7620576  0.2694174  0.5123224

 Al 
  0.5095057  0.5097916  0.5119907

 Al 
  0.5066828  0.7694879  0.7661069

 Al 
  0.7704656  0.5148718  0.7329637

 Al 
  0.7533711  0.7558054  0.4862655

