32 
charge = 0 
 Al 
  0.0027536  0.9930474  0.9978466

 Al 
  0.0051000  0.2462886  0.2442342

 Al 
  0.2316309  0.9910846  0.2587904

 Al 
  0.2494765  0.2344921  0.0016150

 Al 
  0.4904646  0.9884065  0.0075900

 Al 
  0.4930758  0.2484407  0.2628026

 Al 
  0.7428073  0.0070665  0.2582286

 Al 
  0.7467935  0.2627667  0.9838572

 Al 
  0.0079006  0.5133013  0.9805133

 Al 
  0.0247203  0.7395463  0.2454210

 Al 
  0.2551495  0.4967761  0.2205596

 Al 
  0.2495087  0.7597458  0.9910289

 Al 
  0.9811742  0.9902369  0.5010519

 Al 
  0.9962044  0.2307547  0.7479815

 Al 
  0.2450176  0.0057151  0.7594686

 Al 
  0.2483021  0.2437825  0.4933122

 Al 
  0.0247711  0.4904708  0.5060616

 Al 
  0.9932083  0.7559230  0.7561779

 Al 
  0.2638471  0.5057584  0.7449470

 Al 
  0.2367073  0.7443567  0.5040691

 Al 
  0.5012289  0.5046099  0.9991894

 Al 
  0.4970546  0.7394028  0.2574316

 Al 
  0.7511311  0.5046792  0.2583548

 Al 
  0.7437206  0.7489889  0.9994975

 Al 
  0.4887555  0.9933630  0.5046928

 Al 
  0.4737340  0.2521583  0.7540827

 Al 
  0.7554725  0.9901304  0.7516125

 Al 
  0.7609908  0.2688295  0.5120242

 Al 
  0.5097693  0.5099760  0.5123236

 Al 
  0.5057547  0.7692701  0.7655128

 Al 
  0.7704000  0.5146626  0.7328758

 Al 
  0.7533711  0.7559688  0.4868497

