32 
charge = 0 
 Al 
  0.0026657  0.9928853  0.9987711

 Al 
  0.0061395  0.2462799  0.2439867

 Al 
  0.2316383  0.9911143  0.2584971

 Al 
  0.2488763  0.2351641  0.0017289

 Al 
  0.4908643  0.9887617  0.0073722

 Al 
  0.4929348  0.2482922  0.2629956

 Al 
  0.7430461  0.0069155  0.2583486

 Al 
  0.7468368  0.2622779  0.9834835

 Al 
  0.0078065  0.5134189  0.9804638

 Al 
  0.0254072  0.7390946  0.2448691

 Al 
  0.2550356  0.4969519  0.2210844

 Al 
  0.2499196  0.7590515  0.9914014

 Al 
  0.9811098  0.9907381  0.5013749

 Al 
  0.9961574  0.2306284  0.7486399

 Al 
  0.2443617  0.0057312  0.7598460

 Al 
  0.2477315  0.2439001  0.4935993

 Al 
  0.0252376  0.4906861  0.5060108

 Al 
  0.9935795  0.7566432  0.7556000

 Al 
  0.2636553  0.5057844  0.7442490

 Al 
  0.2364982  0.7442936  0.5038773

 Al 
  0.5005458  0.5045914  0.9990100

 Al 
  0.4967341  0.7391701  0.2576840

 Al 
  0.7509084  0.5045691  0.2578115

 Al 
  0.7432800  0.7490112  0.9997327

 Al 
  0.4881714  0.9928655  0.5048191

 Al 
  0.4739345  0.2521336  0.7533761

 Al 
  0.7556915  0.9899671  0.7517400

 Al 
  0.7615415  0.2691414  0.5121826

 Al 
  0.5096431  0.5098832  0.5121578

 Al 
  0.5062336  0.7693963  0.7658297

 Al 
  0.7704433  0.5147691  0.7329105

 Al 
  0.7533724  0.7558896  0.4865465

