32 
charge = 0 
 Al 
  0.0029268  0.9942552  0.9919744

 Al 
  0.9979506  0.2464940  0.2458814

 Al 
  0.2321321  0.9910636  0.2606430

 Al 
  0.2532944  0.2303896  0.0010185

 Al 
  0.4881083  0.9865984  0.0093436

 Al 
  0.4942292  0.2494097  0.2612556

 Al 
  0.7412566  0.0080244  0.2570603

 Al 
  0.7465447  0.2658160  0.9865465

 Al 
  0.0084229  0.5119833  0.9811643

 Al 
  0.0193406  0.7424038  0.2491065

 Al 
  0.2557373  0.4955757  0.2177380

 Al 
  0.2468207  0.7639523  0.9886528

 Al 
  0.9822447  0.9872469  0.4988627

 Al 
  0.9968257  0.2321308  0.7437206

 Al 
  0.2493651  0.0051730  0.7563153

 Al 
  0.2519702  0.2430288  0.4915994

 Al 
  0.0213826  0.4892382  0.5060962

 Al 
  0.9912108  0.7511955  0.7595812

 Al 
  0.2647505  0.5056891  0.7498206

 Al 
  0.2386107  0.7450064  0.5054836

 Al 
  0.5059490  0.5047077  0.0001621

 Al 
  0.4989765  0.7412814  0.2556507

 Al 
  0.7528860  0.5052547  0.2615984

 Al 
  0.7469346  0.7488924  0.9982600

 Al 
  0.4927429  0.9967056  0.5039107

 Al 
  0.4732105  0.2521422  0.7586308

 Al 
  0.7536186  0.9916304  0.7508948

 Al 
  0.7569700  0.2661910  0.5106876

 Al 
  0.5102891  0.5105354  0.5132927

 Al 
  0.5023489  0.7678023  0.7627778

 Al 
  0.7696649  0.5138644  0.7330998

 Al 
  0.7532795  0.7563153  0.4891689

