32 
charge = 0 
 Al 
  0.0025246  0.9955671  0.9871331

 Al 
  0.9914126  0.2468281  0.2473170

 Al 
  0.2332174  0.9912504  0.2621430

 Al 
  0.2563165  0.2272449  0.0007809

 Al 
  0.4865613  0.9856096  0.0112049

 Al 
  0.4955324  0.2502995  0.2595478

 Al 
  0.7399547  0.0087706  0.2555369

 Al 
  0.7464420  0.2681996  0.9891379

 Al 
  0.0087310  0.5100639  0.9822212

 Al 
  0.0136602  0.7447354  0.2523180

 Al 
  0.2560344  0.4945473  0.2160586

 Al 
  0.2444867  0.7670548  0.9867853

 Al 
  0.9839303  0.9850379  0.4969581

 Al 
  0.9977390  0.2339600  0.7401292

 Al 
  0.2530951  0.0042040  0.7526694

 Al 
  0.2550208  0.2424967  0.4903136

 Al 
  0.0181439  0.4884003  0.5057274

 Al 
  0.9900364  0.7472291  0.7619140

 Al 
  0.2650908  0.5057175  0.7543884

 Al 
  0.2409138  0.7457688  0.5068747

 Al 
  0.5103200  0.5048327  0.0007611

 Al 
  0.5003935  0.7433035  0.2540060

 Al 
  0.7547485  0.5055963  0.2640476

 Al 
  0.7500309  0.7489431  0.9975459

 Al 
  0.4964494  0.9997154  0.5032795

 Al 
  0.4738961  0.2519269  0.7624066

 Al 
  0.7514814  0.9934805  0.7504455

 Al 
  0.7529330  0.2631268  0.5092186

 Al 
  0.5103027  0.5109401  0.5139585

 Al 
  0.4991844  0.7657727  0.7596901

 Al 
  0.7683729  0.5129313  0.7338795

 Al 
  0.7530432  0.7564415  0.4916019

