32 
charge = 0 
 Al 
  0.0028885  0.9944978  0.9909757

 Al 
  0.9966474  0.2465509  0.2461722

 Al 
  0.2323053  0.9910871  0.2609561

 Al 
  0.2539342  0.2297201  0.0009467

 Al 
  0.4877518  0.9863583  0.0097000

 Al 
  0.4944706  0.2495842  0.2609376

 Al 
  0.7409893  0.0081828  0.2567905

 Al 
  0.7465125  0.2663210  0.9870539

 Al 
  0.0084971  0.5116554  0.9813388

 Al 
  0.0182615  0.7428877  0.2497599

 Al 
  0.2558141  0.4953641  0.2173420

 Al 
  0.2463492  0.7646255  0.9882555

 Al 
  0.9825330  0.9867705  0.4984741

 Al 
  0.9969841  0.2324576  0.7429843

 Al 
  0.2501275  0.0050121  0.7556458

 Al 
  0.2525989  0.2429075  0.4913247

 Al 
  0.0207453  0.4890513  0.5060517

 Al 
  0.9909311  0.7503762  0.7601047

 Al 
  0.2648520  0.5056903  0.7507215

 Al 
  0.2390302  0.7451500  0.5057559

 Al 
  0.5068140  0.5047275  0.0003020

 Al 
  0.4992835  0.7416650  0.2553228

 Al 
  0.7532399  0.5053351  0.2621194

 Al 
  0.7475434  0.7488899  0.9980892

 Al 
  0.4934731  0.9973071  0.5037795

 Al 
  0.4732587  0.2521113  0.7594104

 Al 
  0.7532251  0.9919645  0.7507908

 Al 
  0.7561940  0.2656279  0.5104104

 Al 
  0.5103250  0.5106245  0.5134412

 Al 
  0.5017177  0.7674447  0.7621999

 Al 
  0.7694557  0.5136998  0.7332137

 Al 
  0.7532461  0.7563524  0.4896305

