32 
charge = 0 
 Al 
  0.0020519  0.9964432  0.9845775

 Al 
  0.9877184  0.2470620  0.2480966

 Al 
  0.2340713  0.9914262  0.2629028

 Al 
  0.2577843  0.2257104  0.0008044

 Al 
  0.4859945  0.9852681  0.0123274

 Al 
  0.4963851  0.2508354  0.2584439

 Al 
  0.7392703  0.0091245  0.2544738

 Al 
  0.7464668  0.2693666  0.9906502

 Al 
  0.0088263  0.5086382  0.9830541

 Al 
  0.0101493  0.7459569  0.2540505

 Al 
  0.2561074  0.4940127  0.2154522

 Al 
  0.2431971  0.7684917  0.9858967

 Al 
  0.9851393  0.9840045  0.4959507

 Al 
  0.9983887  0.2352087  0.7382048

 Al 
  0.2550913  0.0034887  0.7502599

 Al 
  0.2566309  0.2423061  0.4896886

 Al 
  0.0162777  0.4880414  0.5053512

 Al 
  0.9896230  0.7451599  0.7628719

 Al 
  0.2650995  0.5057411  0.7570318

 Al 
  0.2424496  0.7462279  0.5076853

 Al 
  0.5128224  0.5049527  0.0009900

 Al 
  0.5010569  0.7445535  0.2530877

 Al 
  0.7558945  0.5057299  0.2652591

 Al 
  0.7518155  0.7490644  0.9972959

 Al 
  0.4986127  0.0014145  0.5029404

 Al 
  0.4748218  0.2517462  0.7643792

 Al 
  0.7500879  0.9947292  0.7502822

 Al 
  0.7504715  0.2611108  0.5083164

 Al 
  0.5101072  0.5111121  0.5142382

 Al 
  0.4974209  0.7643632  0.7577496

 Al 
  0.7673457  0.5122531  0.7345639

 Al 
  0.7528229  0.7564576  0.4931241

