32 
charge = 0 
 Al 
  0.0023848  0.9958529  0.9862420

 Al 
  0.9901453  0.2469049  0.2475868

 Al 
  0.2334884  0.9913049  0.2624115

 Al 
  0.2568425  0.2266979  0.0007735

 Al 
  0.4863373  0.9854747  0.0115848

 Al 
  0.4958133  0.2504789  0.2591815

 Al 
  0.7397146  0.0088993  0.2551903

 Al 
  0.7464420  0.2686154  0.9896527

 Al 
  0.0087718  0.5096060  0.9824848

 Al 
  0.0124821  0.7451611  0.2529206

 Al 
  0.2560678  0.4943592  0.2158222

 Al 
  0.2440424  0.7675759  0.9864648

 Al 
  0.9843238  0.9846654  0.4966054

 Al 
  0.9979506  0.2343696  0.7394609

 Al 
  0.2537894  0.0039713  0.7518749

 Al 
  0.2555826  0.2424199  0.4900908

 Al 
  0.0175066  0.4882667  0.5056136

 Al 
  0.9898730  0.7465039  0.7622754

 Al 
  0.2651094  0.5057262  0.7552881

 Al 
  0.2414200  0.7459247  0.5071519

 Al 
  0.5111752  0.5048686  0.0008490

 Al 
  0.5006324  0.7437231  0.2536892

 Al 
  0.7551346  0.5056470  0.2644770

 Al 
  0.7506411  0.7489753  0.9974469

 Al 
  0.4971833  0.0002970  0.5031632

 Al 
  0.4741634  0.2518687  0.7630971

 Al 
  0.7510198  0.9938914  0.7503812

 Al 
  0.7521063  0.2624610  0.5089154

 Al 
  0.5102532  0.5110056  0.5140637

 Al 
  0.4985756  0.7653124  0.7590404

 Al 
  0.7680486  0.5127147  0.7340924

 Al 
  0.7529763  0.7564514  0.4921105

