32 
charge = 0 
 Al 
  0.0028278  0.9947515  0.9899856

 Al 
  0.9953332  0.2466140  0.2464630

 Al 
  0.2325021  0.9911180  0.2612643

 Al 
  0.2545617  0.2290666  0.0008861

 Al 
  0.4874152  0.9861393  0.0100663

 Al 
  0.4947230  0.2497612  0.2606047

 Al 
  0.7407220  0.0083387  0.2565009

 Al 
  0.7464853  0.2668148  0.9875712

 Al 
  0.0085664  0.5112977  0.9815319

 Al 
  0.0171452  0.7433654  0.2504121

 Al 
  0.2558821  0.4951537  0.2169732

 Al 
  0.2458764  0.7652765  0.9878669

 Al 
  0.9828486  0.9863076  0.4980855

 Al 
  0.9971561  0.2328065  0.7422529

 Al 
  0.2508873  0.0048314  0.7549428

 Al 
  0.2532226  0.2427924  0.4910574

 Al 
  0.0200968  0.4888731  0.5059923

 Al 
  0.9906737  0.7495644  0.7606047

 Al 
  0.2649374  0.5056940  0.7516361

 Al 
  0.2394733  0.7452997  0.5060331

 Al 
  0.5076915  0.5047485  0.0004319

 Al 
  0.4995805  0.7420610  0.2549911

 Al 
  0.7536063  0.5054094  0.2626281

 Al 
  0.7481622  0.7488924  0.9979320

 Al 
  0.4942132  0.9979122  0.5036508

 Al 
  0.4733516  0.2520742  0.7601839

 Al 
  0.7528105  0.9923197  0.7506918

 Al 
  0.7553970  0.2650364  0.5101220

 Al 
  0.5103448  0.5107111  0.5135835

 Al 
  0.5010804  0.7670598  0.7615972

 Al 
  0.7692206  0.5135228  0.7333498

 Al 
  0.7532053  0.7563833  0.4901069

