32 
charge = 0 
 Al 
  0.0022276  0.9961462  0.9853881

 Al 
  0.9889127  0.2469828  0.2478479

 Al 
  0.2337743  0.9913643  0.2626652

 Al 
  0.2573326  0.2261856  0.0007821

 Al 
  0.4861492  0.9853621  0.0119598

 Al 
  0.4960980  0.2506584  0.2588139

 Al 
  0.7394857  0.0090169  0.2548352

 Al 
  0.7464507  0.2690052  0.9901577

 Al 
  0.0088028  0.5091307  0.9827620

 Al 
  0.0113101  0.7455695  0.2534986

 Al 
  0.2560925  0.4941810  0.2156193

 Al 
  0.2436117  0.7680548  0.9861678

 Al 
  0.9847272  0.9843201  0.4962687

 Al 
  0.9981672  0.2347866  0.7388186

 Al 
  0.2544565  0.0037325  0.7510705

 Al 
  0.2561197  0.2423568  0.4898817

 Al 
  0.0168828  0.4881479  0.5054874

 Al 
  0.9897357  0.7458133  0.7625959

 Al 
  0.2651119  0.5057349  0.7561705

 Al 
  0.2419323  0.7460782  0.5074217

 Al 
  0.5120105  0.5049082  0.0009257

 Al 
  0.5008539  0.7441414  0.2533823

 Al 
  0.7555171  0.5056915  0.2648817

 Al 
  0.7512363  0.7490161  0.9973640

 Al 
  0.4979060  0.0008651  0.5030494

 Al 
  0.4744728  0.2518081  0.7637567

 Al 
  0.7505544  0.9943085  0.7503267

 Al 
  0.7512846  0.2617878  0.5086134

 Al 
  0.5101889  0.5110626  0.5141565

 Al 
  0.4979865  0.7648408  0.7583919

 Al 
  0.7677058  0.5124882  0.7343213

 Al 
  0.7529033  0.7564564  0.4926179

