32 
charge = 0 
 Al 
  0.9989543  0.0002871  0.9780580

 Al 
  0.9770445  0.2478231  0.2501906

 Al 
  0.2381169  0.9922541  0.2643854

 Al 
  0.2601171  0.2227934  0.0020110

 Al 
  0.4867123  0.9853869  0.0156799

 Al 
  0.4997599  0.2528823  0.2540889

 Al 
  0.7377345  0.0094661  0.2499505

 Al 
  0.7473368  0.2713739  0.9953678

 Al 
  0.0084488  0.5018848  0.9873348

 Al 
  0.9979766  0.7491077  0.2583560

 Al 
  0.2557893  0.4928741  0.2158037

 Al 
  0.2395896  0.7706277  0.9847656

 Al 
  0.9900314  0.9825739  0.4937713

 Al 
  0.0010643  0.2401948  0.7331110

 Al 
  0.2601790  0.0006411  0.7408074

 Al 
  0.2606765  0.2428419  0.4885117

 Al 
  0.0106653  0.4877989  0.5032102

 Al 
  0.9898817  0.7402530  0.7629437

 Al 
  0.2640686  0.5054750  0.7652690

 Al 
  0.2484716  0.7474321  0.5099896

 Al 
  0.5202799  0.5059391  0.0010581

 Al 
  0.5021496  0.7487488  0.2506559

 Al 
  0.7595552  0.5058636  0.2679001

 Al 
  0.7570380  0.7502587  0.9975472

 Al 
  0.5055517  0.0063871  0.5018514

 Al 
  0.4814824  0.2510358  0.7690040

 Al 
  0.7448641  0.9997339  0.7505025

 Al 
  0.7420016  0.2533253  0.5054255

 Al 
  0.5080627  0.5109846  0.5143149

 Al 
  0.4928308  0.7586530  0.7511955

 Al 
  0.7621133  0.5087483  0.7382407

 Al 
  0.7514504  0.7563462  0.4987030

