32 
charge = 0 
 Al 
  0.0004430  0.9986127  0.9801148

 Al 
  0.9807015  0.2475645  0.2495013

 Al 
  0.2363435  0.9919088  0.2640661

 Al 
  0.2598015  0.2234345  0.0013267

 Al 
  0.4858757  0.9850973  0.0145451

 Al 
  0.4983689  0.2520370  0.2558982

 Al 
  0.7381392  0.0095379  0.2518650

 Al 
  0.7468219  0.2710435  0.9936612

 Al 
  0.0087558  0.5048673  0.9853881

 Al 
  0.0026496  0.7480917  0.2570652

 Al 
  0.2560133  0.4931538  0.2151762

 Al 
  0.2408000  0.7703666  0.9847755

 Al 
  0.9880414  0.9826655  0.4943146

 Al 
  0.9999629  0.2381541  0.7347631

 Al 
  0.2585912  0.0017697  0.7446562

 Al 
  0.2594191  0.2423630  0.4887629

 Al 
  0.0126516  0.4876788  0.5041953

 Al 
  0.9894572  0.7416960  0.7635983

 Al 
  0.2646626  0.5056866  0.7622828

 Al 
  0.2460249  0.7470806  0.5092335

 Al 
  0.5176736  0.5054143  0.0011596

 Al 
  0.5019628  0.7471845  0.2514195

 Al 
  0.7582508  0.5058623  0.2671823

 Al 
  0.7552423  0.7496250  0.9972254

 Al 
  0.5029924  0.0046681  0.5022759

 Al 
  0.4782003  0.2513081  0.7676798

 Al 
  0.7469407  0.9976759  0.7502463

 Al 
  0.7452391  0.2564675  0.5064675

 Al 
  0.5091369  0.5112074  0.5144770

 Al 
  0.4942478  0.7610032  0.7536409

 Al 
  0.7644770  0.5103683  0.7365576

 Al 
  0.7521138  0.7564056  0.4964816

