32 
charge = 0 
 Al 
  0.0012066  0.9976647  0.9817707

 Al 
  0.9834129  0.2473640  0.2489716

 Al 
  0.2353374  0.9916972  0.2636751

 Al 
  0.2591790  0.2241919  0.0010309

 Al 
  0.4857272  0.9850775  0.0136813

 Al 
  0.4975274  0.2515309  0.2569786

 Al 
  0.7385402  0.0094339  0.2529912

 Al 
  0.7466177  0.2705064  0.9924694

 Al 
  0.0088362  0.5065418  0.9843300

 Al 
  0.0057126  0.7472959  0.2559589

 Al 
  0.2560925  0.4934521  0.2151144

 Al 
  0.2417170  0.7698060  0.9850898

 Al 
  0.9868088  0.9830565  0.4948864

 Al 
  0.9992909  0.2369041  0.7360576

 Al 
  0.2572942  0.0024949  0.7470274

 Al 
  0.2583907  0.2422504  0.4890698

 Al 
  0.0140698  0.4877543  0.5047263

 Al 
  0.9894040  0.7429471  0.7635389

 Al 
  0.2649163  0.5057373  0.7602037

 Al 
  0.2445126  0.7467625  0.5086382

 Al 
  0.5157802  0.5051817  0.0011423

 Al 
  0.5016794  0.7461215  0.2520445

 Al 
  0.7573128  0.5058302  0.2665066

 Al 
  0.7539132  0.7493379  0.9971734

 Al 
  0.5012425  0.0034058  0.5025432

 Al 
  0.4765680  0.2514900  0.7664918

 Al 
  0.7482538  0.9964234  0.7502030

 Al 
  0.7473739  0.2584216  0.5072026

 Al 
  0.5096332  0.5112222  0.5144436

 Al 
  0.4954309  0.7624350  0.7553042

 Al 
  0.7657715  0.5112259  0.7356480

 Al 
  0.7524491  0.7564378  0.4950869

