32 
charge = 0 
 Al 
  0.9959309  0.0034466  0.9760581

 Al 
  0.9728640  0.2479679  0.2510173

 Al 
  0.2413816  0.9927776  0.2641132

 Al 
  0.2589996  0.2230595  0.0034726

 Al 
  0.4894906  0.9864945  0.0166675

 Al 
  0.5021249  0.2544032  0.2508378

 Al 
  0.7377518  0.0086716  0.2465806

 Al 
  0.7486770  0.2704779  0.9976697

 Al 
  0.0074279  0.4963418  0.9910982

 Al 
  0.9910178  0.7502537  0.2592396

 Al 
  0.2552745  0.4929768  0.2181872

 Al 
  0.2382617  0.7696525  0.9860118

 Al 
  0.9931847  0.9838077  0.4938493

 Al 
  0.0028513  0.2435783  0.7314180

 Al 
  0.2616219  0.9990681  0.7346060

 Al 
  0.2618534  0.2444384  0.4886961

 Al 
  0.0080800  0.4886577  0.5013106

 Al 
  0.9913259  0.7391243  0.7600787

 Al 
  0.2626962  0.5046545  0.7692862

 Al 
  0.2523984  0.7474717  0.5105564

 Al 
  0.5234233  0.5072818  0.0006918

 Al 
  0.5018737  0.7508601  0.2500705

 Al 
  0.7609574  0.5058141  0.2682404

 Al 
  0.7591245  0.7517214  0.9986189

 Al 
  0.5090453  0.0083622  0.5010668

 Al 
  0.4883558  0.2506411  0.7697936

 Al 
  0.7416093  0.0031719  0.7514269

 Al 
  0.7373274  0.2483231  0.5041050

 Al 
  0.5056111  0.5100082  0.5134498

 Al 
  0.4918185  0.7547597  0.7479370

 Al 
  0.7576135  0.5054614  0.7415140

 Al 
  0.7500272  0.7562683  0.5023340

