32 
charge = 0 
 Al 
  0.9963591  0.0030073  0.9762400

 Al 
  0.9732946  0.2479729  0.2509220

 Al 
  0.2409324  0.9927157  0.2641998

 Al 
  0.2592421  0.2229481  0.0032709

 Al 
  0.4890439  0.9863088  0.0166069

 Al 
  0.5018106  0.2541929  0.2512858

 Al 
  0.7377023  0.0088226  0.2470348

 Al 
  0.7484704  0.2706908  0.9973986

 Al 
  0.0075986  0.4971041  0.9905722

 Al 
  0.9918828  0.7501287  0.2592000

 Al 
  0.2553475  0.4929249  0.2177862

 Al 
  0.2383954  0.7698579  0.9857680

 Al 
  0.9927838  0.9835577  0.4937775

 Al 
  0.0026212  0.2431340  0.7315789

 Al 
  0.2615007  0.9992476  0.7353992

 Al 
  0.2617482  0.2441748  0.4886342

 Al 
  0.0083820  0.4885006  0.5015754

 Al 
  0.9910945  0.7392060  0.7605601

 Al 
  0.2628991  0.5047980  0.7688134

 Al 
  0.2518947  0.7475075  0.5105354

 Al 
  0.5230843  0.5070714  0.0007450

 Al 
  0.5019417  0.7506163  0.2501027

 Al 
  0.7608311  0.5058203  0.2682441

 Al 
  0.7589030  0.7515049  0.9984481

 Al 
  0.5086357  0.0081605  0.5011794

 Al 
  0.4873719  0.2506906  0.7697713

 Al 
  0.7420239  0.0027202  0.7512722

 Al 
  0.7378905  0.2489604  0.5042535

 Al 
  0.5059750  0.5101802  0.5136058

 Al 
  0.4918630  0.7552683  0.7483083

 Al 
  0.7582372  0.5059316  0.7410549

 Al 
  0.7502351  0.7562757  0.5018563

