32 
charge = 0 
 Al 
  0.9950287  0.0043723  0.9757475

 Al 
  0.9720732  0.2479357  0.2512103

 Al 
  0.2423209  0.9929013  0.2638941

 Al 
  0.2584253  0.2233479  0.0038884

 Al 
  0.4904683  0.9869103  0.0167257

 Al 
  0.5027746  0.2548488  0.2498936

 Al 
  0.7378991  0.0083201  0.2456388

 Al 
  0.7491250  0.2699569  0.9982055

 Al 
  0.0070430  0.4947515  0.9922058

 Al 
  0.9892802  0.7504987  0.2592570

 Al 
  0.2551247  0.4931204  0.2190919

 Al 
  0.2380192  0.7691773  0.9865799

 Al 
  0.9939978  0.9843943  0.4940448

 Al 
  0.0033179  0.2444941  0.7311346

 Al 
  0.2618200  0.9987228  0.7329959

 Al 
  0.2620316  0.2450250  0.4888533

 Al 
  0.0074873  0.4890216  0.5007537

 Al 
  0.9918308  0.7390055  0.7590045

 Al 
  0.2622618  0.5043216  0.7702119

 Al 
  0.2534181  0.7473628  0.5105490

 Al 
  0.5240595  0.5077471  0.0005817

 Al 
  0.5017103  0.7513316  0.2500421

 Al 
  0.7611579  0.5058017  0.2681946

 Al 
  0.7595391  0.7521855  0.9989901

 Al 
  0.5098436  0.0087261  0.5008205

 Al 
  0.4904448  0.2505383  0.7697762

 Al 
  0.7407678  0.0041000  0.7517734

 Al 
  0.7362160  0.2470336  0.5038204

 Al 
  0.5048277  0.5096121  0.5130909

 Al 
  0.4917987  0.7537176  0.7472241

 Al 
  0.7563091  0.5044651  0.7424793

 Al 
  0.7495792  0.7562522  0.5033204

