32 
charge = 0 
 Al 
  0.9979221  0.0013836  0.9771521

 Al 
  0.9752710  0.2479221  0.2505247

 Al 
  0.2392629  0.9924558  0.2643941

 Al 
  0.2599215  0.2227216  0.0025135

 Al 
  0.4875452  0.9857062  0.0161762

 Al 
  0.5006126  0.2534157  0.2529479

 Al 
  0.7376429  0.0092731  0.2487488

 Al 
  0.7477600  0.2712477  0.9962725

 Al 
  0.0081518  0.4999418  0.9886355

 Al 
  0.9953381  0.7495854  0.2588436

 Al 
  0.2556148  0.4928308  0.2164868

 Al 
  0.2390179  0.7704458  0.9850490

 Al 
  0.9912059  0.9828350  0.4936674

 Al 
  0.0017239  0.2414274  0.7323598

 Al 
  0.2608547  0.0000173  0.7385117

 Al 
  0.2612173  0.2433110  0.4884993

 Al 
  0.0096369  0.4880192  0.5025519

 Al 
  0.9903148  0.7396899  0.7621318

 Al 
  0.2636169  0.5052497  0.7668531

 Al 
  0.2499257  0.7475286  0.5103015

 Al 
  0.5215819  0.5063574  0.0009418

 Al 
  0.5021212  0.7495879  0.2503478

 Al 
  0.7601827  0.5058487  0.2681315

 Al 
  0.7579130  0.7507376  0.9978702

 Al 
  0.5069266  0.0072274  0.5015841

 Al 
  0.4838028  0.2508849  0.7694706

 Al 
  0.7436525  0.0009851  0.7507685

 Al 
  0.7401973  0.2514677  0.5048896

 Al 
  0.5072608  0.5107185  0.5140859

 Al 
  0.4922776  0.7572311  0.7498923

 Al 
  0.7605477  0.5076333  0.7393693

 Al 
  0.7509777  0.7563140  0.5000260

