32 
charge = 0 
 Al 
  0.9930424  0.0064069  0.9753329

 Al 
  0.9707923  0.2477637  0.2516138

 Al 
  0.2443765  0.9931352  0.2632654

 Al 
  0.2569328  0.2241783  0.0047436

 Al 
  0.4927627  0.9879276  0.0165561

 Al 
  0.5041619  0.2558462  0.2478058

 Al 
  0.7383929  0.0074019  0.2436167

 Al 
  0.7501572  0.2685164  0.9992488

 Al 
  0.0060863  0.4913036  0.9946488

 Al 
  0.9857680  0.7509863  0.2590515

 Al 
  0.2548129  0.4935746  0.2213294

 Al 
  0.2376306  0.7679781  0.9880501

 Al 
  0.9956623  0.9859240  0.4946599

 Al 
  0.0042795  0.2464420  0.7307151

 Al 
  0.2620464  0.9981065  0.7297027

 Al 
  0.2622803  0.2464569  0.4893099

 Al 
  0.0063202  0.4899634  0.4995359

 Al 
  0.9930152  0.7389164  0.7564180

 Al 
  0.2612717  0.5034615  0.7719989

 Al 
  0.2555096  0.7469680  0.5103052

 Al 
  0.5251596  0.5088671  0.0003700

 Al 
  0.5012809  0.7522016  0.2501361

 Al 
  0.7613286  0.5057856  0.2679546

 Al 
  0.7602619  0.7532338  0.9998453

 Al 
  0.5113410  0.0092780  0.5002388

 Al 
  0.4950856  0.2503218  0.7695040

 Al 
  0.7390327  0.0060542  0.7526236

 Al 
  0.7340800  0.2444124  0.5032919

 Al 
  0.5030382  0.5085961  0.5121615

 Al 
  0.4920598  0.7515383  0.7459334

 Al 
  0.7534726  0.5022375  0.7445993

 Al 
  0.7485533  0.7562200  0.5054329

