32 
charge = 0 
 Al 
  0.9897790  0.0097767  0.9752450

 Al 
  0.9697354  0.2472031  0.2523254

 Al 
  0.2478169  0.9934372  0.2618583

 Al 
  0.2539713  0.2259925  0.0059675

 Al 
  0.4968739  0.9898891  0.0154695

 Al 
  0.5063970  0.2575838  0.2442577

 Al 
  0.7396490  0.0054886  0.2403619

 Al 
  0.7519368  0.2653817  0.0007153

 Al 
  0.0041978  0.4857074  0.9987612

 Al 
  0.9806235  0.7517685  0.2581630

 Al 
  0.2543636  0.4946970  0.2257264

 Al 
  0.2373014  0.7657047  0.9910574

 Al 
  0.9981498  0.9890352  0.4961190

 Al 
  0.0057349  0.2495842  0.7304354

 Al 
  0.2619808  0.9974469  0.7248317

 Al 
  0.2624189  0.2492067  0.4903470

 Al 
  0.0046248  0.4919150  0.4975335

 Al 
  0.9951302  0.7390896  0.7516138

 Al 
  0.2595255  0.5016658  0.7744282

 Al 
  0.2586110  0.7459024  0.5092693

 Al 
  0.5262796  0.5109784  0.0001794

 Al 
  0.5004430  0.7532437  0.2506485

 Al 
  0.7608547  0.5057967  0.2672442

 Al 
  0.7610712  0.7549998  0.0013032

 Al 
  0.5131813  0.0095725  0.4991250

 Al 
  0.5028625  0.2499814  0.7685350

 Al 
  0.7364215  0.0090800  0.7542337

 Al 
  0.7313091  0.2406131  0.5026113

 Al 
  0.4999245  0.5064799  0.5102173

 Al 
  0.4932256  0.7481734  0.7444582

 Al 
  0.7488751  0.4984555  0.7480805

 Al 
  0.7467341  0.7561507  0.5088783

