32 
charge = 0 
 Al 
  0.9903272  0.0092050  0.9752141

 Al 
  0.9698307  0.2473219  0.2521954

 Al 
  0.2472266  0.9933914  0.2621269

 Al 
  0.2545097  0.2256510  0.0057782

 Al 
  0.4961537  0.9895327  0.0157220

 Al 
  0.5060207  0.2572793  0.2448703

 Al 
  0.7394003  0.0058450  0.2409064

 Al 
  0.7516336  0.2659745  0.0004839

 Al 
  0.0045443  0.4866467  0.9980546

 Al 
  0.9814465  0.7516311  0.2583548

 Al 
  0.2544329  0.4944743  0.2249196

 Al 
  0.2373335  0.7661094  0.9904992

 Al 
  0.9977476  0.9884610  0.4958356

 Al 
  0.0054973  0.2490533  0.7304552

 Al 
  0.2620242  0.9975298  0.7256114

 Al 
  0.2624128  0.2487080  0.4901478

 Al 
  0.0048983  0.4915487  0.4978714

 Al 
  0.9947602  0.7390401  0.7524689

 Al 
  0.2598312  0.5020049  0.7740533

 Al 
  0.2581135  0.7461190  0.5095008

 Al 
  0.5261447  0.5105985  0.0001931

 Al 
  0.5005928  0.7530989  0.2505346

 Al 
  0.7610019  0.5057918  0.2673890

 Al 
  0.7609623  0.7547003  0.0010569

 Al 
  0.5129214  0.0095738  0.4993292

 Al 
  0.5015383  0.2500359  0.7687379

 Al 
  0.7368435  0.0085850  0.7539453

 Al 
  0.7317150  0.2412121  0.5027140

 Al 
  0.5004628  0.5068784  0.5105836

 Al 
  0.4929682  0.7487253  0.7446562

 Al 
  0.7496448  0.4991052  0.7474952

 Al 
  0.7470534  0.7561655  0.5082929

