32 
charge = 0 
 Al 
  0.9871900  0.0125229  0.9756472

 Al 
  0.9697676  0.2464717  0.2530481

 Al 
  0.2507203  0.9936538  0.2603807

 Al 
  0.2512004  0.2278390  0.0067682

 Al 
  0.5004480  0.9917566  0.0138285

 Al 
  0.5082013  0.2591085  0.2412269

 Al 
  0.7410697  0.0035679  0.2377927

 Al 
  0.7533662  0.2621467  0.0017697

 Al 
  0.0023675  0.4812361  0.0022511

 Al 
  0.9769430  0.7524962  0.2570219

 Al 
  0.2540691  0.4959655  0.2300072

 Al 
  0.2372667  0.7636540  0.9940461

 Al 
  0.9999678  0.9920846  0.4976808

 Al 
  0.0068313  0.2521571  0.7304775

 Al 
  0.2615898  0.9972241  0.7213616

 Al 
  0.2623533  0.2518254  0.4914398

 Al 
  0.0033476  0.4938926  0.4959136

 Al 
  0.9969902  0.7394461  0.7472613

 Al 
  0.2579823  0.4998107  0.7760297

 Al 
  0.2608311  0.7446315  0.5077929

 Al 
  0.5265853  0.5129387  0.0002686

 Al 
  0.4996980  0.7537610  0.2513366

 Al 
  0.7596988  0.5058277  0.2663977

 Al 
  0.7614413  0.7564118  0.0024504

 Al 
  0.5141169  0.0092384  0.4980088

 Al 
  0.5092297  0.2497512  0.7673333

 Al 
  0.7345218  0.0113262  0.7556953

 Al 
  0.7297572  0.2380253  0.5021620

 Al 
  0.4972959  0.5042807  0.5082088

 Al 
  0.4948097  0.7456079  0.7438221

 Al 
  0.7452255  0.4952824  0.7508477

 Al 
  0.7451141  0.7560529  0.5117259

