32 
charge = 0 
 Al 
  0.9881813  0.0114598  0.9754393

 Al 
  0.9696525  0.2467898  0.2527424

 Al 
  0.2495792  0.9935684  0.2609920

 Al 
  0.2523130  0.2270803  0.0064811

 Al 
  0.4990397  0.9909992  0.0145562

 Al 
  0.5075021  0.2585033  0.2424212

 Al 
  0.7404720  0.0043537  0.2387753

 Al 
  0.7528204  0.2634808  0.0013712

 Al 
  0.0031112  0.4829588  0.0008762

 Al 
  0.9783142  0.7521967  0.2575083

 Al 
  0.2541755  0.4954322  0.2282610

 Al 
  0.2372556  0.7644708  0.9928234

 Al 
  0.9992859  0.9908420  0.4970348

 Al 
  0.0064130  0.2511534  0.7304354

 Al 
  0.2617791  0.9972749  0.7226474

 Al 
  0.2623979  0.2507636  0.4909893

 Al 
  0.0038352  0.4930783  0.4965410

 Al 
  0.9962527  0.7392852  0.7489976

 Al 
  0.2585961  0.5005792  0.7754468

 Al 
  0.2600057  0.7451723  0.5084439

 Al 
  0.5265383  0.5121504  0.0001980

 Al 
  0.4999901  0.7535976  0.2510408

 Al 
  0.7602421  0.5058153  0.2667566

 Al 
  0.7613299  0.7558710  0.0020172

 Al 
  0.5138199  0.0094364  0.4984716

 Al 
  0.5067633  0.2498317  0.7678444

 Al 
  0.7352285  0.0104859  0.7551136

 Al 
  0.7302733  0.2389671  0.5023303

 Al 
  0.4983219  0.5051940  0.5090404

 Al 
  0.4941228  0.7465843  0.7440028

 Al 
  0.7466276  0.4965237  0.7497859

 Al 
  0.7457589  0.7560975  0.5106133

