32 
charge = 0 
 Al 
  0.9887011  0.0109079  0.9753577

 Al 
  0.9696463  0.2469358  0.2525976

 Al 
  0.2489963  0.9935251  0.2612890

 Al 
  0.2528699  0.2267091  0.0063202

 Al 
  0.4983206  0.9906242  0.0148854

 Al 
  0.5071395  0.2581964  0.2430300

 Al 
  0.7401874  0.0047399  0.2392926

 Al 
  0.7525333  0.2641305  0.0011596

 Al 
  0.0034800  0.4838572  0.0001757

 Al 
  0.9790530  0.7520519  0.2577372

 Al 
  0.2542337  0.4951772  0.2274009

 Al 
  0.2372618  0.7648829  0.9922232

 Al 
  0.9989208  0.9902294  0.4967205

 Al 
  0.0061940  0.2506361  0.7304255

 Al 
  0.2618571  0.9973194  0.7233454

 Al 
  0.2624103  0.2502376  0.4907690

 Al 
  0.0040914  0.4926811  0.4968665

 Al 
  0.9958789  0.7392134  0.7498725

 Al 
  0.2589067  0.5009529  0.7751262

 Al 
  0.2595589  0.7454284  0.5087397

 Al 
  0.5264764  0.5117568  0.0001807

 Al 
  0.5001411  0.7534936  0.2509022

 Al 
  0.7604747  0.5058091  0.2669274

 Al 
  0.7612556  0.7555876  0.0017858

 Al 
  0.5136318  0.0095032  0.4986956

 Al 
  0.5054824  0.2498775  0.7680857

 Al 
  0.7356109  0.0100342  0.7548191

 Al 
  0.7305864  0.2394881  0.5024194

 Al 
  0.4988515  0.5056359  0.5094438

 Al 
  0.4938035  0.7471004  0.7441302

 Al 
  0.7473615  0.4971610  0.7492290

 Al 
  0.7460844  0.7561173  0.5100403

