32 
charge = 0 
 Al 
  0.9876764  0.0119994  0.9755359

 Al 
  0.9696933  0.2466338  0.2528922

 Al 
  0.2501547  0.9936105  0.2606888

 Al 
  0.2517549  0.2274578  0.0066309

 Al 
  0.4997500  0.9913779  0.0142035

 Al 
  0.5078560  0.2588077  0.2418197

 Al 
  0.7407665  0.0039627  0.2382741

 Al 
  0.7530989  0.2628174  0.0015742

 Al 
  0.0027400  0.4820838  0.0015692

 Al 
  0.9776100  0.7523452  0.2572682

 Al 
  0.2541198  0.4956958  0.2291310

 Al 
  0.2372568  0.7640612  0.9934323

 Al 
  0.9996362  0.9914608  0.4973553

 Al 
  0.0066271  0.2516608  0.7304527

 Al 
  0.2616888  0.9972427  0.7219853

 Al 
  0.2623781  0.2512933  0.4912133

 Al 
  0.0035877  0.4934830  0.4962230

 Al 
  0.9966239  0.7393632  0.7481263

 Al 
  0.2582880  0.5001980  0.7757487

 Al 
  0.2604302  0.7449074  0.5081271

 Al 
  0.5265742  0.5125452  0.0002277

 Al 
  0.4998428  0.7536867  0.2511856

 Al 
  0.7599834  0.5058215  0.2665796

 Al 
  0.7613918  0.7561470  0.0022400

 Al 
  0.5139807  0.0093485  0.4982427

 Al 
  0.5080145  0.2497884  0.7675932

 Al 
  0.7348646  0.0109178  0.7554057

 Al 
  0.7299973  0.2384795  0.5022449

 Al 
  0.4978033  0.5047423  0.5086283

 Al 
  0.4944594  0.7460868  0.7439001

 Al 
  0.7459148  0.4958962  0.7503267

 Al 
  0.7454346  0.7560764  0.5111764

