32 
charge = 0 
 Al 
  0.9832323  0.0174199  0.9781038

 Al 
  0.9736065  0.2438951  0.2557448

 Al 
  0.2567150  0.9945510  0.2562633

 Al 
  0.2449297  0.2327867  0.0075293

 Al 
  0.5075640  0.9964358  0.0074056

 Al 
  0.5115378  0.2623781  0.2349339

 Al 
  0.7453096  0.9986869  0.2339723

 Al 
  0.7553426  0.2534751  0.0036384

 Al 
  0.9977068  0.4734803  0.0098584

 Al 
  0.9719544  0.7546743  0.2537028

 Al 
  0.2536124  0.4996795  0.2412653

 Al 
  0.2379845  0.7589402  0.0017994

 Al 
  0.0024726  0.9999493  0.5016076

 Al 
  0.0086530  0.2574316  0.7313388

 Al 
  0.2598374  0.9980236  0.7171662

 Al 
  0.2615081  0.2583399  0.4942738

 Al 
  0.0009740  0.4992055  0.4928060

 Al 
  0.0010717  0.7409485  0.7376132

 Al 
  0.2545753  0.4945275  0.7778179

 Al 
  0.2638236  0.7405722  0.5022264

 Al 
  0.5244988  0.5174880  0.0019454

 Al 
  0.4984530  0.7535580  0.2534565

 Al 
  0.7540085  0.5057485  0.2636652

 Al 
  0.7610712  0.7584674  0.0036063

 Al 
  0.5135637  0.0061940  0.4945609

 Al 
  0.5204049  0.2498639  0.7635513

 Al 
  0.7323511  0.0138657  0.7586790

 Al 
  0.7300418  0.2355168  0.5011126

 Al 
  0.4924249  0.4978108  0.5026137

 Al 
  0.5000866  0.7413160  0.7449359

 Al 
  0.7391082  0.4891887  0.7554440

 Al 
  0.7415784  0.7555851  0.5173618

