32 
charge = 0 
 Al 
  0.9833659  0.0171749  0.9778551

 Al 
  0.9731226  0.2441191  0.2554775

 Al 
  0.2563400  0.9944396  0.2565851

 Al 
  0.2453431  0.2324080  0.0075281

 Al 
  0.5071581  0.9960918  0.0079959

 Al 
  0.5113596  0.2621764  0.2353237

 Al 
  0.7449718  0.9990372  0.2340874

 Al 
  0.7552992  0.2541236  0.0035283

 Al 
  0.9980558  0.4738590  0.0093424

 Al 
  0.9721066  0.7544911  0.2539503

 Al 
  0.2536471  0.4993911  0.2404039

 Al 
  0.2378954  0.7592743  0.0012252

 Al 
  0.0023996  0.9993589  0.5013428

 Al 
  0.0085701  0.2570912  0.7312410

 Al 
  0.2599859  0.9979011  0.7172355

 Al 
  0.2616120  0.2578721  0.4940721

 Al 
  0.0011212  0.4988020  0.4929942

 Al 
  0.0007982  0.7408061  0.7382432

 Al 
  0.2547993  0.4949433  0.7777944

 Al 
  0.2637295  0.7409076  0.5027226

 Al 
  0.5248069  0.5171811  0.0017400

 Al 
  0.4984939  0.7536397  0.2532932

 Al 
  0.7545691  0.5057695  0.2638978

 Al 
  0.7611616  0.7584105  0.0036409

 Al 
  0.5137468  0.0065207  0.4948592

 Al 
  0.5198678  0.2498119  0.7638681

 Al 
  0.7323561  0.0138706  0.7585169

 Al 
  0.7298030  0.2354970  0.5012091

 Al 
  0.4926749  0.4983417  0.5030456

 Al 
  0.4996547  0.7415301  0.7447193

 Al 
  0.7393830  0.4895253  0.7552312

 Al 
  0.7418024  0.7556346  0.5170301

