32 
charge = 0 
 Al 
  0.9841926  0.0159819  0.9769615

 Al 
  0.9715125  0.2449730  0.2545282

 Al 
  0.2547126  0.9940857  0.2578536

 Al 
  0.2471066  0.2309019  0.0074402

 Al 
  0.5053017  0.9947008  0.0101913

 Al 
  0.5105205  0.2612829  0.2370279

 Al 
  0.7436389  0.0004765  0.2348559

 Al 
  0.7549391  0.2567447  0.0030444

 Al 
  0.9994518  0.4757227  0.0071927

 Al 
  0.9730818  0.7537882  0.2549614

 Al 
  0.2537709  0.4982402  0.2369808

 Al 
  0.2375934  0.7606381  0.9989023

 Al 
  0.0019108  0.9969902  0.5002129

 Al 
  0.0081432  0.2556458  0.7309044

 Al 
  0.2605688  0.9975075  0.7179211

 Al 
  0.2619536  0.2559514  0.4932367

 Al 
  0.0017499  0.4971870  0.4938122

 Al 
  0.9996522  0.7402851  0.7409361

 Al 
  0.2557522  0.4965880  0.7775222

 Al 
  0.2631429  0.7422108  0.5045963

 Al 
  0.5257859  0.5158841  0.0010470

 Al 
  0.4987612  0.7538661  0.2526335

 Al 
  0.7566036  0.5058264  0.2647852

 Al 
  0.7614239  0.7580107  0.0035580

 Al 
  0.5142580  0.0076828  0.4959866

 Al 
  0.5171897  0.2496770  0.7650797

 Al 
  0.7326518  0.0135451  0.7577422

 Al 
  0.7292015  0.2357532  0.5015507

 Al 
  0.4938852  0.5003948  0.5047683

 Al 
  0.4979605  0.7425610  0.7440647

 Al 
  0.7408061  0.4910883  0.7541594

 Al 
  0.7427776  0.7558079  0.5155413

