32 
charge = 0 
 Al 
  0.9839426  0.0163135  0.9771707

 Al 
  0.9718677  0.2447663  0.2547498

 Al 
  0.2551408  0.9941624  0.2575380

 Al 
  0.2466487  0.2312782  0.0074749

 Al 
  0.5058017  0.9950522  0.0096666

 Al 
  0.5107495  0.2615180  0.2365786

 Al 
  0.7439706  0.0001089  0.2346183

 Al 
  0.7550567  0.2560839  0.0031731

 Al 
  0.9991003  0.4752030  0.0077459

 Al 
  0.9727823  0.7539602  0.2547065

 Al 
  0.2537399  0.4985285  0.2378372

 Al 
  0.2376603  0.7602903  0.9994889

 Al 
  0.0020630  0.9975855  0.5005062

 Al 
  0.0082644  0.2560220  0.7309811

 Al 
  0.2604252  0.9975917  0.7176872

 Al 
  0.2618781  0.2564403  0.4934496

 Al 
  0.0015853  0.4975917  0.4935956

 Al 
  0.9999480  0.7404077  0.7402344

 Al 
  0.2555047  0.4961784  0.7776174

 Al 
  0.2633224  0.7418903  0.5041434

 Al 
  0.5255779  0.5162195  0.0012017

 Al 
  0.4986795  0.7538253  0.2527981

 Al 
  0.7561247  0.5058165  0.2645686

 Al 
  0.7613744  0.7581370  0.0036112

 Al 
  0.5141651  0.0074142  0.4957143

 Al 
  0.5179397  0.2496993  0.7647827

 Al 
  0.7325368  0.0136775  0.7579538

 Al 
  0.7292993  0.2356368  0.5014715

 Al 
  0.4935511  0.4998899  0.5043377

 Al 
  0.4983788  0.7422751  0.7441971

 Al 
  0.7404015  0.4906638  0.7544614

 Al 
  0.7425226  0.7557683  0.5159386

