32 
charge = 0 
 Al 
  0.9836679  0.0186315  0.9812942

 Al 
  0.9806779  0.2413457  0.2593151

 Al 
  0.2600131  0.9964779  0.2527622

 Al 
  0.2412294  0.2369338  0.0071593

 Al 
  0.5104228  0.9999542  0.0002822

 Al 
  0.5125786  0.2638830  0.2316853

 Al 
  0.7488528  0.9952997  0.2346654

 Al 
  0.7547003  0.2469358  0.0046693

 Al 
  0.9939496  0.4715497  0.0149881

 Al 
  0.9724222  0.7567101  0.2512561

 Al 
  0.2529986  0.5026001  0.2504604

 Al 
  0.2392023  0.7553797  0.0076766

 Al 
  0.0021435  0.0062287  0.5039156

 Al 
  0.0088721  0.2606443  0.7327026

 Al 
  0.2583610  0.9997550  0.7187503

 Al 
  0.2598955  0.2628397  0.4962390

 Al 
  0.9994406  0.5034701  0.4911081

 Al 
  0.0037845  0.7427801  0.7319700

 Al 
  0.2525457  0.4901218  0.7770667

 Al 
  0.2636639  0.7369586  0.4965373

 Al 
  0.5196884  0.5202317  0.0047980

 Al 
  0.4987785  0.7522388  0.2550839

 Al 
  0.7470348  0.5053327  0.2609871

 Al 
  0.7595428  0.7579600  0.0018365

 Al 
  0.5104636  0.0021509  0.4909621

 Al 
  0.5228912  0.2508193  0.7598337

 Al 
  0.7340317  0.0117370  0.7594203

 Al 
  0.7344983  0.2374783  0.4997030

 Al 
  0.4911613  0.4918135  0.4981127

 Al 
  0.5046446  0.7399782  0.7483466

 Al 
  0.7381343  0.4869190  0.7565677

 Al 
  0.7397060  0.7548413  0.5198443

