32 
charge = 0 
 Al 
  0.9830008  0.0181798  0.9792090

 Al 
  0.9759084  0.2429459  0.2569588

 Al 
  0.2581172  0.9951215  0.2549428

 Al 
  0.2433605  0.2343424  0.0074613

 Al 
  0.5089699  0.9978120  0.0048426

 Al 
  0.5121207  0.2631033  0.2335021

 Al 
  0.7466883  0.9973170  0.2338288

 Al 
  0.7553289  0.2508873  0.0040580

 Al 
  0.9962848  0.4723009  0.0118880

 Al 
  0.9716982  0.7554428  0.2527202

 Al 
  0.2534417  0.5008366  0.2447812

 Al 
  0.2383954  0.7575887  0.0041013

 Al 
  0.0025778  0.0023551  0.5026026

 Al 
  0.0088820  0.2587384  0.7317893

 Al 
  0.2592434  0.9986028  0.7172925

 Al 
  0.2610069  0.2601728  0.4950646

 Al 
  0.0003935  0.5008453  0.4921019

 Al 
  0.0021422  0.7415809  0.7352297

 Al 
  0.2537238  0.4928271  0.7777363

 Al 
  0.2640005  0.7391862  0.5001176

 Al 
  0.5229840  0.5186550  0.0029058

 Al 
  0.4984060  0.7531385  0.2541112

 Al 
  0.7515358  0.5056272  0.2626813

 Al 
  0.7606010  0.7585070  0.0032251

 Al 
  0.5126021  0.0047461  0.4932701

 Al 
  0.5220348  0.2501535  0.7622098

 Al 
  0.7326271  0.0134870  0.7591889

 Al 
  0.7313586  0.2359178  0.5006584

 Al 
  0.4916366  0.4955831  0.5008613

 Al 
  0.5018551  0.7406131  0.7460175

 Al 
  0.7383224  0.4880414  0.7561037

 Al 
  0.7407505  0.7553475  0.5185399

