32 
charge = 0 
 Al 
  0.9830788  0.0184273  0.9798413

 Al 
  0.9773068  0.2424373  0.2576667

 Al 
  0.2587731  0.9954977  0.2542486

 Al 
  0.2426217  0.2351629  0.0073858

 Al 
  0.5095428  0.9985112  0.0034256

 Al 
  0.5123335  0.2634090  0.2328536

 Al 
  0.7473974  0.9966413  0.2339600

 Al 
  0.7552040  0.2495829  0.0042597

 Al 
  0.9955411  0.4719110  0.0129041

 Al 
  0.9717873  0.7558500  0.2522326

 Al 
  0.2533253  0.5014207  0.2466103

 Al 
  0.2386367  0.7568858  0.0052695

 Al 
  0.0025135  0.0036025  0.5030642

 Al 
  0.0089315  0.2593758  0.7320566

 Al 
  0.2589463  0.9989481  0.7176031

 Al 
  0.2606925  0.2610725  0.4954557

 Al 
  0.0000953  0.5016930  0.4917665

 Al 
  0.0026781  0.7419422  0.7341060

 Al 
  0.2533204  0.4919472  0.7775890

 Al 
  0.2639708  0.7384622  0.4989815

 Al 
  0.5220348  0.5192057  0.0034738

 Al 
  0.4984642  0.7528736  0.2544367

 Al 
  0.7501473  0.5055443  0.2621492

 Al 
  0.7602978  0.7584105  0.0028786

 Al 
  0.5119846  0.0039367  0.4925561

 Al 
  0.5225373  0.2503440  0.7614747

 Al 
  0.7329538  0.0130687  0.7593461

 Al 
  0.7322435  0.2363101  0.5003824

 Al 
  0.4913767  0.4943914  0.4999629

 Al 
  0.5027672  0.7403470  0.7466957

 Al 
  0.7381219  0.4875860  0.7563252

 Al 
  0.7403755  0.7552027  0.5190387

