32 
charge = 0 
 Al 
  0.9839129  0.0186179  0.9817014

 Al 
  0.9816507  0.2410598  0.2597767

 Al 
  0.2603101  0.9967761  0.2523675

 Al 
  0.2409002  0.2374090  0.0070888

 Al 
  0.5105824  0.0003242  0.9994307

 Al 
  0.5125984  0.2639659  0.2314229

 Al 
  0.7492216  0.9949681  0.2349401

 Al 
  0.7545196  0.2462675  0.0047745

 Al 
  0.9935263  0.4715522  0.0155240

 Al 
  0.9726833  0.7569328  0.2510123

 Al 
  0.2528934  0.5028934  0.2514628

 Al 
  0.2393607  0.7549775  0.0082929

 Al 
  0.0019999  0.0069143  0.5041124

 Al 
  0.0088213  0.2609623  0.7328895

 Al 
  0.2582174  0.9999802  0.7191513

 Al 
  0.2596567  0.2632716  0.4964371

 Al 
  0.9992587  0.5039330  0.4909435

 Al 
  0.0040728  0.7430164  0.7314613

 Al 
  0.2523588  0.4896540  0.7768860

 Al 
  0.2635327  0.7365737  0.4958938

 Al 
  0.5190003  0.5204680  0.0051668

 Al 
  0.4989035  0.7520605  0.2552436

 Al 
  0.7461871  0.5052695  0.2606740

 Al 
  0.7593213  0.7577905  0.0014999

 Al 
  0.5100255  0.0016744  0.4905289

 Al 
  0.5228392  0.2509554  0.7593820

 Al 
  0.7343956  0.0112965  0.7593807

 Al 
  0.7351653  0.2378508  0.4995037

 Al 
  0.4911787  0.4911279  0.4976400

 Al 
  0.5051210  0.7399201  0.7488218

 Al 
  0.7382283  0.4868051  0.7565888

 Al 
  0.7395574  0.7547337  0.5200002

