32 
charge = 0 
 Al 
  0.9862371  0.0179236  0.9844834

 Al 
  0.9885129  0.2392976  0.2628756

 Al 
  0.2619388  0.9990508  0.2498366

 Al 
  0.2391726  0.2405227  0.0065690

 Al 
  0.5109599  0.0025692  0.9939186

 Al 
  0.5122878  0.2640649  0.2301470

 Al 
  0.7513675  0.9930709  0.2374288

 Al 
  0.7530011  0.2423321  0.0054218

 Al 
  0.9908000  0.4724011  0.0188394

 Al 
  0.9751114  0.7582682  0.2495867

 Al 
  0.2519974  0.5045357  0.2576234

 Al 
  0.2404324  0.7523378  0.0120254

 Al 
  0.0007264  0.0111579  0.5051408

 Al 
  0.0081506  0.2628484  0.7342545

 Al 
  0.2574217  0.0014826  0.7224964

 Al 
  0.2578499  0.2656267  0.4976251

 Al 
  0.9979667  0.5068016  0.4899671

 Al 
  0.0059007  0.7446574  0.7287053

 Al 
  0.2513316  0.4868756  0.7753737

 Al 
  0.2622989  0.7343374  0.4919286

 Al 
  0.5140389  0.5216128  0.0076036

 Al 
  0.5001015  0.7508737  0.2561272

 Al 
  0.7406948  0.5048253  0.2586617

 Al 
  0.7577570  0.7562782  0.9988713

 Al 
  0.5069860  0.9986919  0.4877011

 Al 
  0.5213096  0.2518601  0.7563363

 Al 
  0.7373831  0.0078103  0.7585305

 Al 
  0.7399176  0.2406836  0.4980756

 Al 
  0.4919831  0.4867828  0.4948394

 Al 
  0.5079216  0.7398829  0.7521261

 Al 
  0.7395797  0.4866046  0.7564168

 Al 
  0.7388619  0.7539330  0.5204631

