32 
charge = 0 
 Al 
  0.9857507  0.0181130  0.9839847

 Al 
  0.9872630  0.2395871  0.2623335

 Al 
  0.2616913  0.9986189  0.2502723

 Al 
  0.2394238  0.2399795  0.0066630

 Al 
  0.5109698  0.0021991  0.9948654

 Al 
  0.5123942  0.2641033  0.2303178

 Al 
  0.7510284  0.9933679  0.2369202

 Al 
  0.7533006  0.2429632  0.0053141

 Al 
  0.9912702  0.4721598  0.0182837

 Al 
  0.9746077  0.7580516  0.2498144

 Al 
  0.2521781  0.5042869  0.2566049

 Al 
  0.2402431  0.7527994  0.0114128

 Al 
  0.0009814  0.0104512  0.5049911

 Al 
  0.0083065  0.2625427  0.7339996

 Al 
  0.2575442  0.0012202  0.7218356

 Al 
  0.2581939  0.2652740  0.4974296

 Al 
  0.9982080  0.5063227  0.4901267

 Al 
  0.0055876  0.7443604  0.7291174

 Al 
  0.2514888  0.4873224  0.7756745

 Al 
  0.2625551  0.7346889  0.4925833

 Al 
  0.5149535  0.5214643  0.0071816

 Al 
  0.4998490  0.7510779  0.2559923

 Al 
  0.7416366  0.5049057  0.2590070

 Al 
  0.7580404  0.7565863  0.9993726

 Al 
  0.5075293  0.9991882  0.4881887

 Al 
  0.5217044  0.2517041  0.7568771

 Al 
  0.7367964  0.0084785  0.7587483

 Al 
  0.7390525  0.2401515  0.4983380

 Al 
  0.4917628  0.4875179  0.4952898

 Al 
  0.5074761  0.7398520  0.7515333

 Al 
  0.7392629  0.4865786  0.7564774

 Al 
  0.7389510  0.7540852  0.5204482

