32 
charge = 0 
 Al 
  0.9867568  0.0177070  0.9849908

 Al 
  0.9897901  0.2390129  0.2634189

 Al 
  0.2621739  0.9995013  0.2494010

 Al 
  0.2389399  0.2410722  0.0064725

 Al 
  0.5109178  0.0029318  0.9929731

 Al 
  0.5121591  0.2640018  0.2299960

 Al 
  0.7516942  0.9927862  0.2379697

 Al 
  0.7526880  0.2417182  0.0055294

 Al 
  0.9903284  0.4726808  0.0193901

 Al 
  0.9756497  0.7584773  0.2493639

 Al 
  0.2518031  0.5047683  0.2586233

 Al 
  0.2406230  0.7518737  0.0126269

 Al 
  0.0004579  0.0118534  0.5052819

 Al 
  0.0079761  0.2631479  0.7345206

 Al 
  0.2573066  0.0017462  0.7231907

 Al 
  0.2574897  0.2659559  0.4978182

 Al 
  0.9977155  0.5072744  0.4898111

 Al 
  0.0062163  0.7449619  0.7283154

 Al 
  0.2511819  0.4864437  0.7750582

 Al 
  0.2620242  0.7340045  0.4912876

 Al 
  0.5130996  0.5217403  0.0080256

 Al 
  0.5003737  0.7506695  0.2562534

 Al 
  0.7397579  0.5047448  0.2583152

 Al 
  0.7574675  0.7559527  0.9983503

 Al 
  0.5064366  0.9982043  0.4872160

 Al 
  0.5208653  0.2520148  0.7557881

 Al 
  0.7380006  0.0071160  0.7582818

 Al 
  0.7408000  0.2412331  0.4978070

 Al 
  0.4922392  0.4860527  0.4944025

 Al 
  0.5083523  0.7399275  0.7527264

 Al 
  0.7399287  0.4866529  0.7563462

 Al 
  0.7387864  0.7537746  0.5204495

