32 
charge = 0 
 Al 
  0.9873088  0.0174632  0.9855032

 Al 
  0.9910883  0.2387382  0.2639585

 Al 
  0.2623954  0.9999653  0.2489679

 Al 
  0.2387270  0.2416242  0.0063747

 Al 
  0.5108460  0.0032845  0.9920350

 Al 
  0.5120068  0.2639139  0.2298649

 Al 
  0.7520049  0.9925140  0.2385377

 Al 
  0.7523637  0.2411267  0.0056346

 Al 
  0.9898582  0.4729951  0.0199347

 Al 
  0.9762190  0.7586790  0.2491498

 Al 
  0.2515977  0.5049837  0.2595973

 Al 
  0.2408136  0.7514071  0.0132122

 Al 
  0.0001794  0.0125340  0.5054131

 Al 
  0.0077855  0.2634387  0.7347941

 Al 
  0.2571977  0.0020086  0.7239122

 Al 
  0.2571185  0.2662591  0.4980088

 Al 
  0.9974556  0.5077385  0.4896577

 Al 
  0.0065306  0.7452713  0.7279541

 Al 
  0.2510408  0.4860292  0.7747277

 Al 
  0.2617346  0.7336902  0.4906663

 Al 
  0.5121393  0.5218455  0.0084414

 Al 
  0.5006646  0.7504678  0.2563722

 Al 
  0.7388322  0.5046644  0.2579711

 Al 
  0.7571754  0.7556086  0.9978169

 Al 
  0.5058834  0.9977278  0.4867346

 Al 
  0.5203752  0.2521670  0.7552337

 Al 
  0.7386417  0.0064019  0.7580021

 Al 
  0.7416935  0.2417962  0.4975348

 Al 
  0.4925276  0.4853324  0.4939817

 Al 
  0.5087632  0.7399869  0.7533315

 Al 
  0.7403086  0.4867234  0.7562658

 Al 
  0.7387233  0.7536112  0.5204086

