32 
charge = 0 
 Al 
  0.9884919  0.0169039  0.9865341

 Al 
  0.9937132  0.2382246  0.2650079

 Al 
  0.2627914  0.0009245  0.2481152

 Al 
  0.2383669  0.2427231  0.0061816

 Al 
  0.5106133  0.0039552  0.9902109

 Al 
  0.5116393  0.2636639  0.2296668

 Al 
  0.7525692  0.9920202  0.2397394

 Al 
  0.7516930  0.2400277  0.0058351

 Al 
  0.9889325  0.4737228  0.0209866

 Al 
  0.9774343  0.7590515  0.2487476

 Al 
  0.2511559  0.5053487  0.2614376

 Al 
  0.2411910  0.7504826  0.0143198

 Al 
  0.9996015  0.0138298  0.5056458

 Al 
  0.0073573  0.2639857  0.7353646

 Al 
  0.2570009  0.0025234  0.7254220

 Al 
  0.2563425  0.2667789  0.4983763

 Al 
  0.9969098  0.5086295  0.4893669

 Al 
  0.0071531  0.7458962  0.7273192

 Al 
  0.2507859  0.4852681  0.7740335

 Al 
  0.2611183  0.7331357  0.4894993

 Al 
  0.5101864  0.5219791  0.0092483

 Al 
  0.5012908  0.7500792  0.2565814

 Al 
  0.7370415  0.5045047  0.2572991

 Al 
  0.7565925  0.7548822  0.9967242

 Al 
  0.5047857  0.9968281  0.4858002

 Al 
  0.5192787  0.2524578  0.7541248

 Al 
  0.7399832  0.0049403  0.7573623

 Al 
  0.7434830  0.2429434  0.4969828

 Al 
  0.4931971  0.4839476  0.4932045

 Al 
  0.5095169  0.7401453  0.7545344

 Al 
  0.7411428  0.4869264  0.7560826

 Al 
  0.7386367  0.7532672  0.5202440

