32 
charge = 0 
 Al 
  0.9910512  0.0155611  0.9885402

 Al 
  0.9988515  0.2373954  0.2668692

 Al 
  0.2633756  0.0028798  0.2465249

 Al 
  0.2379226  0.2448307  0.0058178

 Al 
  0.5098312  0.0051000  0.9869115

 Al 
  0.5106752  0.2628781  0.2295245

 Al 
  0.7534330  0.9912579  0.2422727

 Al 
  0.7503440  0.2382345  0.0061779

 Al 
  0.9872098  0.4754814  0.0228801

 Al 
  0.9800517  0.7596431  0.2480781

 Al 
  0.2501832  0.5057831  0.2645253

 Al 
  0.2418915  0.7487364  0.0162084

 Al 
  0.9984419  0.0160339  0.5059972

 Al 
  0.0063524  0.2649089  0.7365638

 Al 
  0.2566977  0.0034652  0.7285543

 Al 
  0.2547349  0.2674249  0.4990458

 Al 
  0.9957465  0.5101864  0.4888644

 Al 
  0.0083313  0.7471338  0.7264418

 Al 
  0.2504010  0.4840899  0.7725645

 Al 
  0.2598040  0.7323882  0.4875848

 Al 
  0.5063029  0.5219247  0.0106690

 Al 
  0.5026657  0.7493998  0.2568709

 Al 
  0.7338820  0.5042127  0.2560628

 Al 
  0.7554911  0.7533402  0.9945646

 Al 
  0.5027177  0.9953183  0.4841406

 Al 
  0.5167801  0.2529553  0.7519851

 Al 
  0.7427702  0.0020432  0.7558153

 Al 
  0.7469123  0.2452205  0.4959111

 Al 
  0.4948307  0.4815096  0.4919633

 Al 
  0.5106802  0.7405871  0.7567955

 Al 
  0.7430152  0.4875340  0.7556693

 Al 
  0.7386206  0.7525395  0.5196055

