32 
charge = 0 
 Al 
  0.0020791  0.0083313  0.9953047

 Al 
  0.0155116  0.2374833  0.2692441

 Al 
  0.2632023  0.0097062  0.2418927

 Al 
  0.2393594  0.2520036  0.0047708

 Al 
  0.5035815  0.0068301  0.9793426

 Al 
  0.5042325  0.2562893  0.2319328

 Al 
  0.7537498  0.9912158  0.2521150

 Al 
  0.7462217  0.2363546  0.0063871

 Al 
  0.9826234  0.4849413  0.0273254

 Al 
  0.9913247  0.7600131  0.2470732

 Al 
  0.2458208  0.5032536  0.2678234

 Al 
  0.2436798  0.7437020  0.0191005

 Al 
  0.9952626  0.0185139  0.5065875

 Al 
  0.0009232  0.2660264  0.7423407

 Al 
  0.2562188  0.0056977  0.7407529

 Al 
  0.2485211  0.2648050  0.5013564

 Al 
  0.9901936  0.5131652  0.4881033

 Al 
  0.0121541  0.7514913  0.7279788

 Al 
  0.2501720  0.4848436  0.7660339

 Al 
  0.2547052  0.7350490  0.4863757

 Al 
  0.4924571  0.5170004  0.0129499

 Al 
  0.5082805  0.7484209  0.2563598

 Al 
  0.7285642  0.5032375  0.2524912

 Al 
  0.7529961  0.7470954  0.9883112

 Al 
  0.4967774  0.9936117  0.4814638

 Al 
  0.5059589  0.2535840  0.7451822

 Al 
  0.7536669  0.9931984  0.7474828

 Al 
  0.7568635  0.2530296  0.4925189

 Al 
  0.5032758  0.4773365  0.4915437

 Al 
  0.5101072  0.7432776  0.7621925

 Al 
  0.7512128  0.4914596  0.7541062

 Al 
  0.7403012  0.7490285  0.5135587

