32 
charge = 0 
 Al 
  0.0007735  0.0093015  0.9945943

 Al 
  0.0139189  0.2371739  0.2694396

 Al 
  0.2633966  0.0090491  0.2423160

 Al 
  0.2389659  0.2512116  0.0048760

 Al 
  0.5045097  0.0068437  0.9798017

 Al 
  0.5051829  0.2573239  0.2314192

 Al 
  0.7539033  0.9909893  0.2510457

 Al 
  0.7465621  0.2362061  0.0064725

 Al 
  0.9829612  0.4836803  0.0270445

 Al 
  0.9899733  0.7601010  0.2470695

 Al 
  0.2463331  0.5038760  0.2681278

 Al 
  0.2435473  0.7441352  0.0191129

 Al 
  0.9954557  0.0187540  0.5065492

 Al 
  0.0016583  0.2661106  0.7415400

 Al 
  0.2562571  0.0055567  0.7393780

 Al 
  0.2491857  0.2655042  0.5010618

 Al 
  0.9909138  0.5130625  0.4880847

 Al 
  0.0117519  0.7510284  0.7274095

 Al 
  0.2501337  0.4842830  0.7668816

 Al 
  0.2552436  0.7342693  0.4860155

 Al 
  0.4939533  0.5179867  0.0129598

 Al 
  0.5076902  0.7483912  0.2565517

 Al 
  0.7285840  0.5033736  0.2528464

 Al 
  0.7531026  0.7477996  0.9887840

 Al 
  0.4973108  0.9934768  0.4814229

 Al 
  0.5071779  0.2536211  0.7458443

 Al 
  0.7524417  0.9939520  0.7485681

 Al 
  0.7560059  0.2522239  0.4928494

 Al 
  0.5022449  0.4773662  0.4912381

 Al 
  0.5106146  0.7429224  0.7619115

 Al 
  0.7502673  0.4909262  0.7542622

 Al 
  0.7399819  0.7495025  0.5145228

