32 
charge = 0 
 Al 
  0.9994839  0.0102285  0.9938803

 Al 
  0.0122556  0.2369450  0.2695089

 Al 
  0.2635501  0.0083548  0.2427590

 Al 
  0.2386280  0.2504307  0.0049787

 Al 
  0.5053859  0.0068078  0.9803512

 Al 
  0.5060740  0.2582818  0.2309712

 Al 
  0.7540208  0.9908210  0.2499641

 Al 
  0.7469358  0.2361381  0.0065281

 Al 
  0.9833449  0.4824724  0.0267115

 Al 
  0.9886466  0.7601629  0.2470942

 Al 
  0.2468455  0.5044169  0.2682751

 Al 
  0.2434013  0.7445980  0.0190436

 Al 
  0.9956982  0.0188605  0.5065059

 Al 
  0.0023600  0.2661378  0.7407901

 Al 
  0.2562918  0.0053908  0.7380093

 Al 
  0.2498651  0.2661044  0.5007883

 Al 
  0.9916106  0.5129041  0.4880934

 Al 
  0.0113484  0.7505606  0.7269417

 Al 
  0.2501027  0.4838523  0.7676872

 Al 
  0.2557943  0.7336134  0.4857730

 Al 
  0.4954544  0.5188530  0.0129053

 Al 
  0.5070776  0.7483961  0.2567088

 Al 
  0.7287473  0.5034924  0.2532003

 Al 
  0.7532548  0.7485038  0.9893211

 Al 
  0.4978702  0.9934224  0.4814737

 Al 
  0.5084030  0.2536310  0.7465249

 Al 
  0.7512190  0.9947688  0.7496213

 Al 
  0.7550889  0.2514046  0.4931897

 Al 
  0.5012190  0.4775061  0.4910202

 Al 
  0.5110044  0.7425771  0.7615403

 Al 
  0.7493231  0.4904126  0.7544243

 Al 
  0.7396961  0.7499530  0.5154138

