32 
charge = 0 
 Al 
  0.9969247  0.0119821  0.9924038

 Al 
  0.0086691  0.2367210  0.2692738

 Al 
  0.2637295  0.0068549  0.2437256

 Al 
  0.2381206  0.2488553  0.0051928

 Al 
  0.5069910  0.0065739  0.9817608

 Al 
  0.5076989  0.2599908  0.2302584

 Al 
  0.7541248  0.9906601  0.2477427

 Al 
  0.7477934  0.2362692  0.0065517

 Al 
  0.9842644  0.4801792  0.0258688

 Al 
  0.9860292  0.7601938  0.2472328

 Al 
  0.2478702  0.5052510  0.2680536

 Al 
  0.2430523  0.7456376  0.0186464

 Al 
  0.9963282  0.0186662  0.5064031

 Al 
  0.0036817  0.2660289  0.7394052

 Al 
  0.2563635  0.0049676  0.7352458

 Al 
  0.2512735  0.2670041  0.5002747

 Al 
  0.9929434  0.5124066  0.4881974

 Al 
  0.0105205  0.7495953  0.7263056

 Al 
  0.2500817  0.4833585  0.7692169

 Al 
  0.2569440  0.7326655  0.4856678

 Al 
  0.4985273  0.5202564  0.0125860

 Al 
  0.5057943  0.7485174  0.2569180

 Al 
  0.7295295  0.5037040  0.2539404

 Al 
  0.7537053  0.7499319  0.9905995

 Al 
  0.4990941  0.9935622  0.4818511

 Al 
  0.5108980  0.2535654  0.7479803

 Al 
  0.7487451  0.9966165  0.7516422

 Al 
  0.7530382  0.2496943  0.4939112

 Al 
  0.4991869  0.4781360  0.4908532

 Al 
  0.5114400  0.7419162  0.7605267

 Al 
  0.7474197  0.4894399  0.7547671

 Al 
  0.7392146  0.7507970  0.5169942

