32 
charge = 0 
 Al 
  0.9988441  0.0106777  0.9935189

 Al 
  0.0113930  0.2368596  0.2694966

 Al 
  0.2636119  0.0079947  0.2429904

 Al 
  0.2384795  0.2500408  0.0050307

 Al 
  0.5058054  0.0067695  0.9806631

 Al 
  0.5064997  0.2587347  0.2307708

 Al 
  0.7540642  0.9907591  0.2494183

 Al 
  0.7471350  0.2361356  0.0065455

 Al 
  0.9835553  0.4818858  0.0265234

 Al 
  0.9879895  0.7601839  0.2471177

 Al 
  0.2471016  0.5046569  0.2682862

 Al 
  0.2433209  0.7448418  0.0189780

 Al 
  0.9958381  0.0188629  0.5064824

 Al 
  0.0027004  0.2661316  0.7404312

 Al 
  0.2563091  0.0052968  0.7373236

 Al 
  0.2502104  0.2663668  0.5006571

 Al 
  0.9919509  0.5128026  0.4881095

 Al 
  0.0111455  0.7503242  0.7267462

 Al 
  0.2500916  0.4836827  0.7680783

 Al 
  0.2560752  0.7333313  0.4856987

 Al 
  0.4962106  0.5192429  0.0128521

 Al 
  0.5067645  0.7484122  0.2567732

 Al 
  0.7288835  0.5035481  0.2533798

 Al 
  0.7533488  0.7488577  0.9896144

 Al 
  0.4981610  0.9934248  0.4815331

 Al 
  0.5090206  0.2536248  0.7468764

 Al 
  0.7506052  0.9952032  0.7501361

 Al 
  0.7546062  0.2509876  0.4933642

 Al 
  0.5007079  0.4776199  0.4909448

 Al 
  0.5111554  0.7424088  0.7613212

 Al 
  0.7488491  0.4901626  0.7545072

 Al 
  0.7395636  0.7501695  0.5158334

