32 
charge = 0 
 Al 
  0.0034082  0.0073140  0.9960188

 Al 
  0.0170388  0.2378768  0.2689199

 Al 
  0.2629672  0.0103237  0.2414856

 Al 
  0.2398087  0.2528167  0.0046594

 Al 
  0.5026001  0.0067682  0.9789701

 Al 
  0.5032201  0.2551742  0.2325194

 Al 
  0.7535667  0.9915017  0.2531793

 Al 
  0.7459111  0.2365823  0.0062695

 Al 
  0.9823338  0.4862606  0.0275519

 Al 
  0.9927108  0.7599017  0.2471066

 Al 
  0.2453084  0.5025519  0.2673704

 Al 
  0.2438010  0.7432986  0.0190090

 Al 
  0.9951215  0.0181402  0.5066197

 Al 
  0.0001510  0.2658866  0.7431996

 Al 
  0.2561717  0.0058128  0.7421464

 Al 
  0.2478689  0.2640067  0.5016769

 Al 
  0.9894485  0.5132147  0.4881516

 Al 
  0.0125625  0.7519529  0.7286558

 Al 
  0.2502166  0.4855378  0.7651317

 Al 
  0.2541780  0.7359537  0.4868521

 Al 
  0.4909547  0.5158866  0.0128756

 Al 
  0.5088486  0.7484852  0.2561272

 Al 
  0.7286855  0.5030815  0.2521274

 Al 
  0.7529355  0.7463913  0.9879028

 Al 
  0.4962601  0.9938246  0.4816012

 Al 
  0.5047423  0.2535184  0.7445349

 Al 
  0.7549032  0.9925028  0.7463603

 Al 
  0.7576741  0.2538265  0.4921910

 Al 
  0.5043129  0.4774194  0.4919360

 Al 
  0.5094760  0.7436451  0.7623831

 Al 
  0.7521620  0.4920165  0.7539528

 Al 
  0.7406552  0.7485273  0.5125142

