32 
charge = 0 
 Al 
  0.0089501  0.0027053  0.9989901

 Al 
  0.0224358  0.2403136  0.2662838

 Al 
  0.2616356  0.0122655  0.2400178

 Al 
  0.2421477  0.2563970  0.0040642

 Al 
  0.4982142  0.0060319  0.9783290

 Al 
  0.4985644  0.2499282  0.2357123

 Al 
  0.7526298  0.9932677  0.2573672

 Al 
  0.7449644  0.2382135  0.0054799

 Al 
  0.9817125  0.4921972  0.0279021

 Al 
  0.9986486  0.7592805  0.2475670

 Al 
  0.2433048  0.4990656  0.2642666

 Al 
  0.2442132  0.7419422  0.0178605

 Al 
  0.9951463  0.0152789  0.5066358

 Al 
  0.9966796  0.2646961  0.7473244

 Al 
  0.2558153  0.0060183  0.7479617

 Al 
  0.2454495  0.2598423  0.5033340

 Al 
  0.9863101  0.5128781  0.4886763

 Al 
  0.0142827  0.7537857  0.7325095

 Al 
  0.2503490  0.4897505  0.7607965

 Al 
  0.2521979  0.7408012  0.4898186

 Al 
  0.4848460  0.5100688  0.0119635

 Al 
  0.5107854  0.7490780  0.2547386

 Al 
  0.7305183  0.5021484  0.2504628

 Al 
  0.7531100  0.7435944  0.9869586

 Al 
  0.4942899  0.9954532  0.4831704

 Al 
  0.4999134  0.2529404  0.7420202

 Al 
  0.7599401  0.9902901  0.7415215

 Al 
  0.7605143  0.2569341  0.4908829

 Al 
  0.5083672  0.4788785  0.4943468

 Al 
  0.5056742  0.7452094  0.7621813

 Al 
  0.7559539  0.4944941  0.7533501

 Al 
  0.7424373  0.7462539  0.5075058

