32 
charge = 0 
 Al 
  0.0061457  0.0051136  0.9974791

 Al 
  0.0199000  0.2389213  0.2678716

 Al 
  0.2623769  0.0114215  0.2407170

 Al 
  0.2408767  0.2545369  0.0044008

 Al 
  0.5004839  0.0064984  0.9784776

 Al 
  0.5010024  0.2526991  0.2339377

 Al 
  0.7531273  0.9922615  0.2552943

 Al 
  0.7453789  0.2372618  0.0059391

 Al 
  0.9819068  0.4891020  0.0278452

 Al 
  0.9956042  0.7596196  0.2472662

 Al 
  0.2442874  0.5009269  0.2660524

 Al 
  0.2440164  0.7425672  0.0185894

 Al 
  0.9950064  0.0169806  0.5066581

 Al 
  0.9984852  0.2654225  0.7451215

 Al 
  0.2560356  0.0059675  0.7450101

 Al 
  0.2466116  0.2621083  0.5024231

 Al 
  0.9878942  0.5131541  0.4883459

 Al 
  0.0134028  0.7528761  0.7303500

 Al 
  0.2503007  0.4873533  0.7631231

 Al 
  0.2531570  0.7381417  0.4881355

 Al 
  0.4879115  0.5132493  0.0125402

 Al 
  0.5098980  0.7487154  0.2555307

 Al 
  0.7293377  0.5026843  0.2513465

 Al 
  0.7529429  0.7449792  0.9872878

 Al 
  0.4952589  0.9944867  0.4821741

 Al 
  0.5023130  0.2532944  0.7432639

 Al 
  0.7574118  0.9912801  0.7440003

 Al 
  0.7591716  0.2554020  0.4915375

 Al 
  0.5063772  0.4779194  0.4929781

 Al 
  0.5078313  0.7444112  0.7624821

 Al 
  0.7540691  0.4932045  0.7536520

 Al 
  0.7414732  0.7474407  0.5101715

