32 
charge = 0 
 Al 
  0.0054515  0.0056854  0.9971091

 Al 
  0.0192107  0.2386280  0.2681847

 Al 
  0.2625402  0.0111678  0.2409039

 Al 
  0.2405883  0.2540939  0.0044713

 Al 
  0.5010309  0.0065838  0.9785691

 Al 
  0.5015791  0.2533476  0.2335503

 Al 
  0.7532437  0.9920474  0.2547671

 Al 
  0.7455015  0.2370650  0.0060331

 Al 
  0.9819935  0.4883657  0.0277932

 Al 
  0.9948654  0.7596975  0.2472142

 Al 
  0.2445411  0.5013588  0.2664299

 Al 
  0.2439644  0.7427405  0.0187243

 Al 
  0.9950126  0.0173222  0.5066531

 Al 
  0.9989171  0.2655623  0.7446141

 Al 
  0.2560764  0.0059391  0.7442837

 Al 
  0.2469197  0.2626194  0.5022214

 Al 
  0.9882889  0.5131887  0.4882840

 Al 
  0.0131887  0.7526459  0.7298822

 Al 
  0.2502822  0.4868447  0.7636540

 Al 
  0.2534082  0.7375476  0.4877754

 Al 
  0.4886763  0.5139609  0.0126479

 Al 
  0.5096480  0.7486449  0.2556965

 Al 
  0.7291236  0.5027957  0.2515507

 Al 
  0.7529256  0.7453319  0.9874152

 Al 
  0.4955064  0.9942924  0.4819922

 Al 
  0.5029194  0.2533625  0.7435795

 Al 
  0.7567806  0.9915648  0.7446042

 Al 
  0.7588114  0.2550109  0.4917009

 Al 
  0.5058648  0.4777523  0.4926848

 Al 
  0.5082917  0.7442156  0.7624932

 Al 
  0.7535926  0.4928976  0.7537275

 Al 
  0.7412554  0.7477229  0.5107891

