32 
charge = 0 
 Al 
  0.0075454  0.0039330  0.9982290

 Al 
  0.0212168  0.2395760  0.2671440

 Al 
  0.2620242  0.0118818  0.2403569

 Al 
  0.2414893  0.2554502  0.0042436

 Al 
  0.4993614  0.0062893  0.9783587

 Al 
  0.4998057  0.2513452  0.2347792

 Al 
  0.7528823  0.9927343  0.2563400

 Al 
  0.7451562  0.2377061  0.0057250

 Al 
  0.9817769  0.4906218  0.0279058

 Al 
  0.9971115  0.7594562  0.2473986

 Al 
  0.2437874  0.5000186  0.2652096

 Al 
  0.2441154  0.7422405  0.0182627

 Al 
  0.9950411  0.0161960  0.5066568

 Al 
  0.9975967  0.2650921  0.7461895

 Al 
  0.2559391  0.0060071  0.7464791

 Al 
  0.2460163  0.2610155  0.5028563

 Al 
  0.9870996  0.5130427  0.4884931

 Al 
  0.0138397  0.7533340  0.7313722

 Al 
  0.2503329  0.4884808  0.7620006

 Al 
  0.2526682  0.7394176  0.4889325

 Al 
  0.4863757  0.5117222  0.0122816

 Al 
  0.5103671  0.7488800  0.2551594

 Al 
  0.7298649  0.5024355  0.2509195

 Al 
  0.7530085  0.7442787  0.9870848

 Al 
  0.4947713  0.9949334  0.4826184

 Al 
  0.5011051  0.2531335  0.7426377

 Al 
  0.7586790  0.9907542  0.7427702

 Al 
  0.7598634  0.2561767  0.4912096

 Al 
  0.5073895  0.4783414  0.4936241

 Al 
  0.5068153  0.7448084  0.7623831

 Al 
  0.7550183  0.4938382  0.7535011

 Al 
  0.7419373  0.7468566  0.5088758

