32 
charge = 0 
 Al 
  0.0027412  0.0078288  0.9956611

 Al 
  0.0162826  0.2376702  0.2690981

 Al 
  0.2630897  0.0100205  0.2416873

 Al 
  0.2395772  0.2524071  0.0047164

 Al 
  0.5030976  0.0068054  0.9791458

 Al 
  0.5037337  0.2557423  0.2322162

 Al 
  0.7536619  0.9913519  0.2526471

 Al 
  0.7460621  0.2364586  0.0063326

 Al 
  0.9824724  0.4855935  0.0274454

 Al 
  0.9920128  0.7599611  0.2470868

 Al 
  0.2455646  0.5029120  0.2676155

 Al 
  0.2437416  0.7434966  0.0190647

 Al 
  0.9951859  0.0183444  0.5066049

 Al 
  0.0005421  0.2659646  0.7427615

 Al 
  0.2561965  0.0057584  0.7414472

 Al 
  0.2481932  0.2644188  0.5015135

 Al 
  0.9898235  0.5131974  0.4881244

 Al 
  0.0123571  0.7517227  0.7283043

 Al 
  0.2501943  0.4851728  0.7655908

 Al 
  0.2544404  0.7354859  0.4865997

 Al 
  0.4917071  0.5164596  0.0129202

 Al 
  0.5085676  0.7484481  0.2562485

 Al 
  0.7286075  0.5031632  0.2523105

 Al 
  0.7529602  0.7467440  0.9880996

 Al 
  0.4965175  0.9937082  0.4815207

 Al 
  0.5053500  0.2535543  0.7448567

 Al 
  0.7542832  0.9928432  0.7469259

 Al 
  0.7572744  0.2534280  0.4923543

 Al 
  0.5037944  0.4773637  0.4917281

 Al 
  0.5098077  0.7434595  0.7622989

 Al 
  0.7516868  0.4917343  0.7540295

 Al 
  0.7404745  0.7487810  0.5130464

