32 
charge = 0 
 Al 
  0.0082484  0.0033241  0.9986090

 Al 
  0.0218393  0.2399349  0.2667294

 Al 
  0.2618348  0.0120848  0.2401849

 Al 
  0.2418135  0.2559205  0.0041570

 Al 
  0.4987897  0.0061668  0.9783328

 Al 
  0.4991894  0.2506435  0.2352346

 Al 
  0.7527561  0.9929942  0.2568573

 Al 
  0.7450572  0.2379523  0.0056062

 Al 
  0.9817361  0.4914027  0.0279120

 Al 
  0.9978776  0.7593696  0.2474778

 Al 
  0.2435436  0.4995471  0.2647493

 Al 
  0.2441649  0.7420870  0.0180709

 Al 
  0.9950844  0.0157529  0.5066482

 Al 
  0.9971412  0.2649027  0.7467489

 Al 
  0.2558797  0.0060158  0.7472192

 Al 
  0.2457292  0.2604388  0.5030902

 Al 
  0.9867036  0.5129672  0.4885810

 Al 
  0.0140599  0.7535617  0.7319266

 Al 
  0.2503428  0.4890983  0.7614091

 Al 
  0.2524306  0.7400970  0.4893656

 Al 
  0.4856084  0.5109104  0.0121294

 Al 
  0.5105836  0.7489753  0.2549552

 Al 
  0.7301755  0.5022969  0.2506943

 Al 
  0.7530543  0.7439335  0.9870118

 Al 
  0.4945287  0.9951846  0.4828808

 Al 
  0.5005062  0.2530419  0.7423271

 Al 
  0.7593114  0.9905153  0.7421477

 Al 
  0.7601938  0.2565578  0.4910462

 Al 
  0.5078833  0.4785964  0.4939768

 Al 
  0.5062596  0.7450077  0.7622952

 Al 
  0.7554886  0.4941637  0.7534256

 Al 
  0.7421836  0.7465571  0.5081989

