32 
charge = 0 
 Al 
  0.0147072  0.9970880  0.0023105

 Al 
  0.0261509  0.2443394  0.2611702

 Al 
  0.2595812  0.0126937  0.2389337

 Al 
  0.2453084  0.2607062  0.0028810

 Al 
  0.4933234  0.0043711  0.9793253

 Al 
  0.4930300  0.2434199  0.2407641

 Al 
  0.7515965  0.9962143  0.2613299

 Al 
  0.7444805  0.2409695  0.0041347

 Al 
  0.9823288  0.4993787  0.0270358

 Al 
  0.0054020  0.7584748  0.2488058

 Al 
  0.2415821  0.4948208  0.2594933

 Al 
  0.2446896  0.7410388  0.0152802

 Al 
  0.9965385  0.0099772  0.5061705

 Al 
  0.9926439  0.2621863  0.7528489

 Al 
  0.2548710  0.0057411  0.7542745

 Al 
  0.2434768  0.2540901  0.5059242

 Al 
  0.9833238  0.5115613  0.4899040

 Al 
  0.0161886  0.7555072  0.7386639

 Al 
  0.2501460  0.4966982  0.7545988

 Al 
  0.2505037  0.7477513  0.4944186

 Al 
  0.4786867  0.5017153  0.0099500

 Al 
  0.5117903  0.7502488  0.2523105

 Al 
  0.7346220  0.5004430  0.2481115

 Al 
  0.7538377  0.7410648  0.9873113

 Al 
  0.4923432  0.9983899  0.4868200

 Al 
  0.4951450  0.2517276  0.7395352

 Al 
  0.7649819  0.9890488  0.7362222

 Al 
  0.7628211  0.2597656  0.4895463

 Al 
  0.5118682  0.4825231  0.4981795

 Al 
  0.4995062  0.7469049  0.7600824

 Al 
  0.7595973  0.4975781  0.7526608

 Al 
  0.7449297  0.7435585  0.5010024

