32 
charge = 0 
 Al 
  0.0110217  0.0008106  0.0001361

 Al 
  0.0240359  0.2415586  0.2647691

 Al 
  0.2609945  0.0126652  0.2395636

 Al 
  0.2431946  0.2578548  0.0037424

 Al 
  0.4964890  0.0055604  0.9784565

 Al 
  0.4966635  0.2477303  0.2372655

 Al 
  0.7522524  0.9941686  0.2588399

 Al 
  0.7447329  0.2390711  0.0050641

 Al 
  0.9817472  0.4946228  0.0277709

 Al 
  0.0009727  0.7590070  0.2478937

 Al 
  0.2426291  0.4975954  0.2627160

 Al 
  0.2443592  0.7415573  0.0171242

 Al 
  0.9954408  0.0136850  0.5065554

 Al 
  0.9952836  0.2639795  0.7491250

 Al 
  0.2555740  0.0059849  0.7501757

 Al 
  0.2446760  0.2579637  0.5041297

 Al 
  0.9851728  0.5125340  0.4890179

 Al 
  0.0149510  0.7544317  0.7344080

 Al 
  0.2503379  0.4918903  0.7588461

 Al 
  0.2515445  0.7430399  0.4912814

 Al 
  0.4826110  0.5073895  0.0113868

 Al 
  0.5112965  0.7494258  0.2540171

 Al 
  0.7317088  0.5016484  0.2497253

 Al 
  0.7533167  0.7426217  0.9869115

 Al 
  0.4935919  0.9963480  0.4841939

 Al 
  0.4981870  0.2525915  0.7411230

 Al 
  0.7617791  0.9897171  0.7396527

 Al 
  0.7614054  0.2580083  0.4904027

 Al 
  0.5097334  0.4798884  0.4955485

 Al 
  0.5037622  0.7458071  0.7616863

 Al 
  0.7572979  0.4955101  0.7531199

 Al 
  0.7432380  0.7453307  0.5053525

