32 
charge = 0 
 Al 
  0.0135761  0.9982922  0.0016163

 Al 
  0.0256250  0.2433914  0.2624276

 Al 
  0.2600639  0.0128063  0.2390958

 Al 
  0.2446216  0.2597879  0.0032016

 Al 
  0.4943085  0.0047956  0.9789478

 Al 
  0.4941872  0.2448109  0.2395612

 Al 
  0.7517920  0.9955089  0.2605861

 Al 
  0.7445337  0.2403272  0.0044503

 Al 
  0.9820591  0.4978405  0.0273514

 Al 
  0.0039850  0.7586456  0.2484642

 Al 
  0.2418754  0.4956920  0.2605502

 Al 
  0.2445708  0.7411725  0.0159373

 Al 
  0.9960980  0.0112606  0.5063363

 Al 
  0.9934780  0.2628261  0.7516150

 Al 
  0.2551384  0.0058462  0.7529838

 Al 
  0.2438209  0.2553685  0.5053054

 Al 
  0.9838535  0.5119202  0.4895822

 Al 
  0.0158012  0.7551916  0.7372024

 Al 
  0.2502376  0.4950535  0.7560455

 Al 
  0.2508044  0.7461809  0.4933679

 Al 
  0.4798834  0.5036112  0.0104611

 Al 
  0.5117111  0.7499629  0.2529095

 Al 
  0.7335973  0.5008688  0.2486622

 Al 
  0.7536582  0.7415103  0.9871108

 Al 
  0.4927306  0.9976895  0.4858745

 Al 
  0.4960819  0.2520346  0.7400240

 Al 
  0.7640104  0.9891998  0.7372927

 Al 
  0.7624090  0.2592533  0.4898087

 Al 
  0.5112643  0.4815690  0.4972897

 Al 
  0.5009566  0.7465621  0.7606963

 Al 
  0.7589043  0.4968925  0.7528130

 Al 
  0.7443641  0.7441241  0.5024281

