32 
charge = 0 
 Al 
  0.0181748  0.9925907  0.0049020

 Al 
  0.0262326  0.2483441  0.2553772

 Al 
  0.2573870  0.0107532  0.2388830

 Al 
  0.2477835  0.2639968  0.0010247

 Al 
  0.4901329  0.0022845  0.9819823

 Al 
  0.4889325  0.2382716  0.2462353

 Al 
  0.7511064  0.9994171  0.2633991

 Al 
  0.7445114  0.2436476  0.0028080

 Al 
  0.9844278  0.5052324  0.0247686

 Al 
  0.0106715  0.7578152  0.2507623

 Al 
  0.2410858  0.4920449  0.2555802

 Al 
  0.2454470  0.7408235  0.0120477

 Al 
  0.9993255  0.0042362  0.5049057

 Al 
  0.9898322  0.2590379  0.7579006

 Al 
  0.2532597  0.0050715  0.7587978

 Al 
  0.2424929  0.2490273  0.5087001

 Al 
  0.9824019  0.5097112  0.4915660

 Al 
  0.0174422  0.7562868  0.7452366

 Al 
  0.2493924  0.5038575  0.7481028

 Al 
  0.2497562  0.7541891  0.4987352

 Al 
  0.4751163  0.4939533  0.0074142

 Al 
  0.5111121  0.7514962  0.2494357

 Al 
  0.7393334  0.4984134  0.2456240

 Al 
  0.7544676  0.7401812  0.9888199

 Al 
  0.4910537  0.0013960  0.4915549

 Al 
  0.4920660  0.2502809  0.7379820

 Al 
  0.7678370  0.9891466  0.7326865

 Al 
  0.7639263  0.2609920  0.4887691

 Al 
  0.5130860  0.4873892  0.5019442

 Al 
  0.4932615  0.7480645  0.7566853

 Al 
  0.7616393  0.5004938  0.7520234

 Al 
  0.7473034  0.7415561  0.4953455

