32 
charge = 0 
 Al 
  0.0185746  0.9918222  0.0053648

 Al 
  0.0257809  0.2491275  0.2541062

 Al 
  0.2568920  0.0100403  0.2390278

 Al 
  0.2481560  0.2644993  0.0005148

 Al 
  0.4897146  0.0017994  0.9827719

 Al 
  0.4882766  0.2373991  0.2474395

 Al 
  0.7510878  0.0001151  0.2635810

 Al 
  0.7445560  0.2441686  0.0025444

 Al 
  0.9850898  0.5062843  0.0240706

 Al 
  0.0115972  0.7576865  0.2512895

 Al 
  0.2411663  0.4917108  0.2549465

 Al 
  0.2456896  0.7408321  0.0112890

 Al 
  0.0001114  0.0030159  0.5045023

 Al 
  0.9894386  0.2583028  0.7588931

 Al 
  0.2528043  0.0048983  0.7595230

 Al 
  0.2423531  0.2480843  0.5092854

 Al 
  0.9825553  0.5092619  0.4919794

 Al 
  0.0175969  0.7563140  0.7466648

 Al 
  0.2491473  0.5053289  0.7466722

 Al 
  0.2497141  0.7554440  0.4995730

 Al 
  0.4747451  0.4924608  0.0068029

 Al 
  0.5107519  0.7517450  0.2487723

 Al 
  0.7403507  0.4979543  0.2450807

 Al 
  0.7545332  0.7402431  0.9892641

 Al 
  0.4908730  0.0019937  0.4926823

 Al 
  0.4916242  0.2499653  0.7377865

 Al 
  0.7681291  0.9893136  0.7321940

 Al 
  0.7640191  0.2610292  0.4886973

 Al 
  0.5130328  0.4885711  0.5026979

 Al 
  0.4919942  0.7482377  0.7558289

 Al 
  0.7618596  0.5011051  0.7518935

 Al 
  0.7477835  0.7412455  0.4942651

