32 
charge = 0 
 Al 
  0.0165883  0.9948827  0.0035741

 Al 
  0.0266361  0.2462007  0.2585924

 Al 
  0.2586072  0.0121046  0.2387716

 Al 
  0.2465571  0.2623632  0.0021410

 Al 
  0.4916390  0.0034677  0.9803228

 Al 
  0.4909707  0.2408854  0.2432045

 Al 
  0.7512957  0.9976462  0.2625105

 Al 
  0.7444483  0.2422194  0.0035172

 Al 
  0.9830862  0.5022152  0.0261992

 Al 
  0.0079786  0.7581592  0.2495928

 Al 
  0.2411898  0.4933370  0.2575516

 Al 
  0.2449718  0.7408767  0.0138855

 Al 
  0.9976226  0.0073870  0.5057151

 Al 
  0.9911873  0.2608250  0.7552139

 Al 
  0.2542387  0.0054737  0.7565529

 Al 
  0.2429434  0.2516769  0.5071766

 Al 
  0.9825999  0.5107767  0.4906032

 Al 
  0.0168531  0.7559873  0.7416106

 Al 
  0.2498800  0.4999715  0.7516942

 Al 
  0.2500532  0.7507698  0.4964432

 Al 
  0.4767165  0.4980682  0.0088634

 Al 
  0.5116900  0.7508217  0.2510581

 Al 
  0.7367271  0.4995532  0.2469989

 Al 
  0.7541706  0.7404386  0.9878731

 Al 
  0.4916737  0.9997772  0.4888496

 Al 
  0.4935461  0.2510866  0.7387097

 Al 
  0.7665685  0.9889473  0.7343795

 Al 
  0.7634597  0.2605317  0.4891132

 Al 
  0.5127135  0.4845899  0.4999220

 Al 
  0.4966363  0.7475014  0.7586778

 Al 
  0.7607247  0.4989109  0.7523662

 Al 
  0.7460274  0.7425486  0.4983194

