32 
charge = 0 
 Al 
  0.0161688  0.9954049  0.0032746

 Al 
  0.0265853  0.2457440  0.2592396

 Al 
  0.2588510  0.0122952  0.2387914

 Al 
  0.2462650  0.2619759  0.0023378

 Al 
  0.4920214  0.0036978  0.9800443

 Al 
  0.4914509  0.2414831  0.2425944

 Al 
  0.7513588  0.9972885  0.2622543

 Al 
  0.7444483  0.2419138  0.0036681

 Al 
  0.9828697  0.5015408  0.0264331

 Al 
  0.0073684  0.7582347  0.2493837

 Al 
  0.2412616  0.4936723  0.2580107

 Al 
  0.2448938  0.7409052  0.0142419

 Al 
  0.9973281  0.0080318  0.5058450

 Al 
  0.9915215  0.2611727  0.7546396

 Al 
  0.2544094  0.0055468  0.7560232

 Al 
  0.2430585  0.2522573  0.5068648

 Al 
  0.9827360  0.5109797  0.4904225

 Al 
  0.0167021  0.7558883  0.7408755

 Al 
  0.2499567  0.4991622  0.7524182

 Al 
  0.2501473  0.7500359  0.4959507

 Al 
  0.4771534  0.4989555  0.0091419

 Al 
  0.5117469  0.7506794  0.2513762

 Al 
  0.7361999  0.4997785  0.2472761

 Al 
  0.7540926  0.7405599  0.9877147

 Al 
  0.4918271  0.9994357  0.4883285

 Al 
  0.4939100  0.2512487  0.7388954

 Al 
  0.7662183  0.9889486  0.7347990

 Al 
  0.7633236  0.2603732  0.4892085

 Al 
  0.5125489  0.4840565  0.4994938

 Al 
  0.4973442  0.7473652  0.7590478

 Al 
  0.7604760  0.4985842  0.7524380

 Al 
  0.7457589  0.7427850  0.4989654

