32 
charge = 0 
 Al 
  0.0183914  0.9921959  0.0051384

 Al 
  0.0260272  0.2487414  0.2547411

 Al 
  0.2571407  0.0104079  0.2389486

 Al 
  0.2479791  0.2642592  0.0007747

 Al 
  0.4899102  0.0020432  0.9823672

 Al 
  0.4885934  0.2378236  0.2468380

 Al 
  0.7510928  0.9997673  0.2635030

 Al 
  0.7445337  0.2439112  0.0026744

 Al 
  0.9847495  0.5057683  0.0244295

 Al 
  0.0111443  0.7577509  0.2510210

 Al 
  0.2411168  0.4918655  0.2552522

 Al 
  0.2455646  0.7408259  0.0116702

 Al 
  0.9997104  0.0036223  0.5047089

 Al 
  0.9896255  0.2586716  0.7584018

 Al 
  0.2530370  0.0049849  0.7591716

 Al 
  0.2424212  0.2485483  0.5089946

 Al 
  0.9824613  0.5094884  0.4917702

 Al 
  0.0175251  0.7563066  0.7459519

 Al 
  0.2492736  0.5045988  0.7473875

 Al 
  0.2497302  0.7548240  0.4991597

 Al 
  0.4749121  0.4931971  0.0071110

 Al 
  0.5109413  0.7516224  0.2491052

 Al 
  0.7398433  0.4981845  0.2453517

 Al 
  0.7545047  0.7401997  0.9890377

 Al 
  0.4909584  0.0016979  0.4921155

 Al 
  0.4918346  0.2501225  0.7378781

 Al 
  0.7679979  0.9892245  0.7324279

 Al 
  0.7639795  0.2610205  0.4887283

 Al 
  0.5130736  0.4879758  0.5023241

 Al 
  0.4926217  0.7481548  0.7562608

 Al 
  0.7617593  0.5008007  0.7519578

 Al 
  0.7475459  0.7413952  0.4947985

