32 
charge = 0 
 Al 
  0.0176427  0.9934434  0.0044020

 Al 
  0.0265222  0.2475162  0.2566568

 Al 
  0.2578758  0.0113695  0.2387963

 Al 
  0.2473430  0.2634065  0.0014975

 Al 
  0.4906539  0.0027635  0.9812645

 Al 
  0.4896763  0.2392406  0.2450287

 Al 
  0.7511571  0.9987142  0.2631206

 Al 
  0.7444768  0.2430981  0.0030828

 Al 
  0.9838387  0.5040963  0.0253935

 Al 
  0.0096629  0.7579476  0.2502698

 Al 
  0.2410747  0.4924843  0.2563029

 Al 
  0.2452366  0.7408297  0.0127927

 Al 
  0.9986003  0.0054787  0.5052621

 Al 
  0.9903111  0.2597607  0.7568635

 Al 
  0.2536768  0.0052386  0.7579773

 Al 
  0.2426514  0.2500347  0.5080998

 Al 
  0.9823821  0.5101468  0.4911700

 Al 
  0.0172405  0.7562076  0.7437973

 Al 
  0.2496077  0.5023378  0.7495334

 Al 
  0.2498416  0.7528711  0.4978528

 Al 
  0.4756411  0.4955336  0.0080058

 Al 
  0.5114004  0.7512338  0.2500903

 Al 
  0.7383013  0.4988713  0.2461710

 Al 
  0.7543698  0.7402134  0.9884127

 Al 
  0.4912727  0.0007685  0.4904534

 Al 
  0.4925920  0.2506015  0.7382320

 Al 
  0.7674236  0.9890278  0.7332830

 Al 
  0.7637815  0.2608720  0.4888793

 Al 
  0.5130253  0.4862433  0.5011584

 Al 
  0.4945758  0.7478627  0.7575095

 Al 
  0.7613373  0.4998713  0.7521583

 Al 
  0.7468071  0.7419162  0.4964853

