32 
charge = 0 
 Al 
  0.0188704  0.9895129  0.0069539

 Al 
  0.0223986  0.2518563  0.2490100

 Al 
  0.2547844  0.0062744  0.2402183

 Al 
  0.2489208  0.2655760  0.9980372

 Al 
  0.4890241  0.9997537  0.9867296

 Al 
  0.4863942  0.2348015  0.2523477

 Al 
  0.7513291  0.0028922  0.2633904

 Al 
  0.7447602  0.2459990  0.0015754

 Al 
  0.9885835  0.5098089  0.0203777

 Al 
  0.0146193  0.7571222  0.2537993

 Al 
  0.2422343  0.4913717  0.2532721

 Al 
  0.2470781  0.7409324  0.0080503

 Al 
  0.0038872  0.9982786  0.5023897

 Al 
  0.9886726  0.2551940  0.7625068

 Al 
  0.2505482  0.0041941  0.7616244

 Al 
  0.2418049  0.2448889  0.5114697

 Al 
  0.9846097  0.5072645  0.4938753

 Al 
  0.0176922  0.7559353  0.7523996

 Al 
  0.2478504  0.5107631  0.7407653

 Al 
  0.2499307  0.7599735  0.5025420

 Al 
  0.4747958  0.4872630  0.0040765

 Al 
  0.5085949  0.7526100  0.2459866

 Al 
  0.7443456  0.4960707  0.2428853

 Al 
  0.7544032  0.7414744  0.9914410

 Al 
  0.4905364  0.0040790  0.4975645

 Al 
  0.4905834  0.2487649  0.7375476

 Al 
  0.7681489  0.9904039  0.7311457

 Al 
  0.7639028  0.2604166  0.4888260

 Al 
  0.5117247  0.4937751  0.5054391

 Al 
  0.4873719  0.7487191  0.7520321

 Al 
  0.7619907  0.5035469  0.7513824

 Al 
  0.7496077  0.7404856  0.4903371

