32 
charge = 0 
 Al 
  0.0184310  0.9889387  0.0074811

 Al 
  0.0204792  0.2527288  0.2470435

 Al 
  0.2539095  0.0044886  0.2409448

 Al 
  0.2488949  0.2655673  0.9968987

 Al 
  0.4891552  0.9989258  0.9885921

 Al 
  0.4859351  0.2341728  0.2542820

 Al 
  0.7515507  0.0039429  0.2629437

 Al 
  0.7448220  0.2465955  0.0012264

 Al 
  0.9903062  0.5109178  0.0185399

 Al 
  0.0155190  0.7568425  0.2549243

 Al 
  0.2429719  0.4916489  0.2529912

 Al 
  0.2478231  0.7409720  0.0067237

 Al 
  0.0055789  0.9965237  0.5013811

 Al 
  0.9887122  0.2539305  0.7637543

 Al 
  0.2494938  0.0039392  0.7621454

 Al 
  0.2415351  0.2438951  0.5122172

 Al 
  0.9860267  0.5063945  0.4947218

 Al 
  0.0174682  0.7556012  0.7546198

 Al 
  0.2472105  0.5126145  0.7383941

 Al 
  0.2501658  0.7615254  0.5035172

 Al 
  0.4754765  0.4855898  0.0028897

 Al 
  0.5074774  0.7528711  0.2448678

 Al 
  0.7458529  0.4953282  0.2420313

 Al 
  0.7541681  0.7423741  0.9924521

 Al 
  0.4905834  0.0047225  0.4996065

 Al 
  0.4904683  0.2483491  0.7377011

 Al 
  0.7676959  0.9909769  0.7311037

 Al 
  0.7636639  0.2598881  0.4890723

 Al 
  0.5107792  0.4959816  0.5063611

 Al 
  0.4858163  0.7488528  0.7504381

 Al 
  0.7617445  0.5044961  0.7511831

 Al 
  0.7502859  0.7404015  0.4889510

