32 
charge = 0 
 Al 
  0.0156935  0.9881627  0.0087805

 Al 
  0.0137530  0.2546557  0.2416762

 Al 
  0.2513700  0.9989295  0.2436550

 Al 
  0.2479667  0.2643273  0.9933493

 Al 
  0.4905005  0.9965967  0.9945374

 Al 
  0.4852186  0.2334823  0.2596691

 Al 
  0.7524838  0.0066692  0.2607606

 Al 
  0.7448629  0.2479456  0.0002636

 Al 
  0.9960732  0.5133892  0.0122803

 Al 
  0.0172838  0.7556990  0.2583078

 Al 
  0.2459037  0.4934013  0.2531632

 Al 
  0.2505173  0.7410376  0.0029305

 Al 
  0.0106010  0.9920041  0.4982427

 Al 
  0.9896824  0.2503304  0.7667516

 Al 
  0.2461413  0.0033377  0.7629684

 Al 
  0.2404621  0.2418346  0.5138842

 Al 
  0.9915957  0.5036904  0.4973838

 Al 
  0.0159435  0.7543141  0.7606282

 Al 
  0.2450869  0.5167442  0.7316866

 Al 
  0.2511868  0.7652567  0.5056594

 Al 
  0.4791520  0.4819031  0.9992302

 Al 
  0.5037028  0.7533154  0.2417702

 Al 
  0.7499332  0.4932961  0.2396874

 Al 
  0.7530098  0.7460175  0.9957168

 Al 
  0.4912616  0.0059168  0.5056161

 Al 
  0.4908693  0.2474123  0.7388595

 Al 
  0.7653111  0.9928630  0.7318709

 Al 
  0.7625241  0.2577929  0.4903792

 Al 
  0.5070690  0.5025048  0.5083919

 Al 
  0.4823672  0.7492686  0.7458826

 Al 
  0.7603188  0.5071345  0.7506200

 Al 
  0.7521558  0.7407678  0.4853968

