32 
charge = 0 
 Al 
  0.0152010  0.9881442  0.0089315

 Al 
  0.0127902  0.2548488  0.2410190

 Al 
  0.2510470  0.9981944  0.2440572

 Al 
  0.2477711  0.2640513  0.9928754

 Al 
  0.4907591  0.9963084  0.9953455

 Al 
  0.4851740  0.2335033  0.2603398

 Al 
  0.7526298  0.0069811  0.2603968

 Al 
  0.7448517  0.2480830  0.0001386

 Al 
  0.9968888  0.5136404  0.0113819

 Al 
  0.0174286  0.7555022  0.2587409

 Al 
  0.2463566  0.4937070  0.2532746

 Al 
  0.2509195  0.7410425  0.0024504

 Al 
  0.0112346  0.9914868  0.4978343

 Al 
  0.9898842  0.2498738  0.7670759

 Al 
  0.2456859  0.0032746  0.7630204

 Al 
  0.2402888  0.2416477  0.5140451

 Al 
  0.9924459  0.5033229  0.4977452

 Al 
  0.0156502  0.7541297  0.7613497

 Al 
  0.2447886  0.5171365  0.7308487

 Al 
  0.2513489  0.7656614  0.5058648

 Al 
  0.4797881  0.4815393  0.9987352

 Al 
  0.5031706  0.7533365  0.2413940

 Al 
  0.7504344  0.4930498  0.2393990

 Al 
  0.7528179  0.7465843  0.9961710

 Al 
  0.4914051  0.0059997  0.5063970

 Al 
  0.4909881  0.2473219  0.7390810

 Al 
  0.7649089  0.9931216  0.7320504

 Al 
  0.7623360  0.2574774  0.4906094

 Al 
  0.5065046  0.5033501  0.5085800

 Al 
  0.4820405  0.7493391  0.7453171

 Al 
  0.7600688  0.5074637  0.7505495

 Al 
  0.7523934  0.7408755  0.4849809

