32 
charge = 0 
 Al 
  0.0161564  0.9881986  0.0086270

 Al 
  0.0146961  0.2544503  0.2423420

 Al 
  0.2516942  0.9996621  0.2432639

 Al 
  0.2481474  0.2645772  0.9938209

 Al 
  0.4902604  0.9968888  0.9937355

 Al 
  0.4852718  0.2334872  0.2589921

 Al 
  0.7523415  0.0063462  0.2611059

 Al 
  0.7448703  0.2478009  0.0003886

 Al 
  0.9952725  0.5131244  0.0131590

 Al 
  0.0171204  0.7558821  0.2578709

 Al 
  0.2454668  0.4931105  0.2530704

 Al 
  0.2501275  0.7410326  0.0034132

 Al 
  0.0099599  0.9925375  0.4986535

 Al 
  0.9894968  0.2507883  0.7664138

 Al 
  0.2465918  0.0034033  0.7629065

 Al 
  0.2406267  0.2420388  0.5137122

 Al 
  0.9907727  0.5040543  0.4970249

 Al 
  0.0162145  0.7544961  0.7598931

 Al 
  0.2453789  0.5163185  0.7325318

 Al 
  0.2510309  0.7648359  0.5054378

 Al 
  0.4785518  0.4822917  0.9997203

 Al 
  0.5042263  0.7532845  0.2421539

 Al 
  0.7494270  0.4935461  0.2399795

 Al 
  0.7531941  0.7454718  0.9952700

 Al 
  0.4911304  0.0058178  0.5048364

 Al 
  0.4907653  0.2475100  0.7386528

 Al 
  0.7656935  0.9926068  0.7317076

 Al 
  0.7627036  0.2580986  0.4901626

 Al 
  0.5076160  0.5016596  0.5081865

 Al 
  0.4827224  0.7492030  0.7464544

 Al 
  0.7605527  0.5068029  0.7506906

 Al 
  0.7519182  0.7406737  0.4858225

