32 
charge = 0 
 Al 
  0.0182132  0.9887803  0.0076518

 Al 
  0.0197602  0.2530023  0.2463789

 Al 
  0.2536063  0.0038501  0.2412244

 Al 
  0.2488466  0.2655091  0.9964927

 Al 
  0.4892456  0.9986424  0.9892629

 Al 
  0.4858076  0.2340070  0.2549403

 Al 
  0.7516398  0.0042931  0.2627481

 Al 
  0.7448381  0.2467848  0.0011101

 Al 
  0.9909361  0.5112668  0.0178642

 Al 
  0.0157925  0.7567348  0.2553215

 Al 
  0.2432627  0.4917900  0.2529392

 Al 
  0.2481028  0.7409831  0.0062670

 Al 
  0.0061742  0.9959408  0.5010198

 Al 
  0.9887666  0.2534961  0.7641577

 Al 
  0.2491151  0.0038562  0.7622915

 Al 
  0.2414311  0.2435894  0.5124548

 Al 
  0.9865836  0.5060863  0.4950238

 Al 
  0.0173556  0.7554688  0.7553698

 Al 
  0.2469779  0.5132048  0.7375811

 Al 
  0.2502624  0.7620279  0.5038241

 Al 
  0.4757883  0.4850651  0.0024702

 Al 
  0.5070665  0.7529479  0.2444867

 Al 
  0.7463591  0.4950770  0.2417417

 Al 
  0.7540654  0.7427318  0.9928159

 Al 
  0.4906230  0.0049168  0.5003168

 Al 
  0.4904621  0.2482154  0.7377840

 Al 
  0.7674892  0.9911873  0.7311296

 Al 
  0.7635612  0.2596790  0.4891825

 Al 
  0.5104067  0.4967514  0.5066544

 Al 
  0.4853225  0.7488961  0.7498874

 Al 
  0.7616257  0.5048191  0.7511150

 Al 
  0.7505136  0.7403990  0.4884944

