32 
charge = 0 
 Al 
  0.0091951  0.9887481  0.0102396

 Al 
  0.0032288  0.2560925  0.2353361

 Al 
  0.2482365  0.9915710  0.2481239

 Al 
  0.2452824  0.2603448  0.9885525

 Al 
  0.4939260  0.9939359  0.0030308

 Al 
  0.4851480  0.2348832  0.2662541

 Al 
  0.7542250  0.0092929  0.2562398

 Al 
  0.7445213  0.2488973  0.9987946

 Al 
  0.0051544  0.5151738  0.0021558

 Al 
  0.0177739  0.7528254  0.2623236

 Al 
  0.2512636  0.4972043  0.2550876

 Al 
  0.2552027  0.7411366  0.9981548

 Al 
  0.0163692  0.9876937  0.4943852

 Al 
  0.9924645  0.2457849  0.7692911

 Al 
  0.2413705  0.0028179  0.7630860

 Al 
  0.2383224  0.2407492  0.5148309

 Al 
  0.0014640  0.4997277  0.5011819

 Al 
  0.0116566  0.7524937  0.7671130

 Al 
  0.2418915  0.5189211  0.7237897

 Al 
  0.2531644  0.7684397  0.5069044

 Al 
  0.4873162  0.4794131  0.9939001

 Al 
  0.4979098  0.7530308  0.2383929

 Al 
  0.7548364  0.4910970  0.2369202

 Al 
  0.7506534  0.7527882  0.0007599

 Al 
  0.4934273  0.0058945  0.5135822

 Al 
  0.4927553  0.2468455  0.7419546

 Al 
  0.7602606  0.9955955  0.7345688

 Al 
  0.7601752  0.2542213  0.4935152

 Al 
  0.5005322  0.5109933  0.5092619

 Al 
  0.4806000  0.7504356  0.7407331

 Al 
  0.7570677  0.5103794  0.7499493

 Al 
  0.7546087  0.7425709  0.4815900

