32 
charge = 0 
 Al 
  0.0146800  0.9881404  0.0090788

 Al 
  0.0118150  0.2550295  0.2403718

 Al 
  0.2507289  0.9974618  0.2444669

 Al 
  0.2475595  0.2637530  0.9924026

 Al 
  0.4910339  0.9960262  0.9961574

 Al 
  0.4851381  0.2335466  0.2610019

 Al 
  0.7527820  0.0072831  0.2600181

 Al 
  0.7448357  0.2482117  0.0000099

 Al 
  0.9977167  0.5138743  0.0104673

 Al 
  0.0175536  0.7552931  0.2591679

 Al 
  0.2468219  0.4940288  0.2534033

 Al 
  0.2513304  0.7410475  0.0019751

 Al 
  0.0118571  0.9909868  0.4974296

 Al 
  0.9901007  0.2494221  0.7673840

 Al 
  0.2452292  0.0032152  0.7630625

 Al 
  0.2401082  0.2414781  0.5141911

 Al 
  0.9933196  0.5029528  0.4981090

 Al 
  0.0153334  0.7539441  0.7620526

 Al 
  0.2444879  0.5174942  0.7300245

 Al 
  0.2515173  0.7660450  0.5060529

 Al 
  0.4804552  0.4812014  0.9982365

 Al 
  0.5026311  0.7533501  0.2410264

 Al 
  0.7509294  0.4928098  0.2391156

 Al 
  0.7526187  0.7471697  0.9966314

 Al 
  0.4915623  0.0060641  0.5071754

 Al 
  0.4911205  0.2472378  0.7393198

 Al 
  0.7644894  0.9933815  0.7322459

 Al 
  0.7621405  0.2571556  0.4908544

 Al 
  0.5059254  0.5041904  0.5087483

 Al 
  0.4817422  0.7494171  0.7447626

 Al 
  0.7598077  0.5077880  0.7504814

 Al 
  0.7526298  0.7409955  0.4845738

