32 
charge = 0 
 Al 
  0.0117531  0.9883533  0.0097607

 Al 
  0.0069180  0.2557448  0.2373682

 Al 
  0.2492389  0.9939743  0.2465484

 Al 
  0.2463455  0.2619808  0.9901292

 Al 
  0.4925783  0.9947404  0.0001349

 Al 
  0.4850799  0.2340961  0.2641107

 Al 
  0.7535815  0.0085714  0.2579637

 Al 
  0.7446970  0.2487018  0.9993515

 Al 
  0.0019058  0.5147876  0.0057980

 Al 
  0.0178754  0.7540505  0.2611158

 Al 
  0.2492760  0.4957700  0.2542560

 Al 
  0.2534776  0.7410809  0.9997277

 Al 
  0.0146664  0.9888582  0.4955658

 Al 
  0.9913544  0.2472823  0.7686538

 Al 
  0.2429954  0.0029664  0.7631429

 Al 
  0.2391317  0.2409039  0.5146998

 Al 
  0.9978714  0.5011175  0.4998911

 Al 
  0.0134511  0.7530642  0.7651936

 Al 
  0.2429929  0.5186934  0.7262314

 Al 
  0.2524157  0.7676266  0.5067150

 Al 
  0.4841431  0.4799255  0.9957626

 Al 
  0.4999344  0.7532721  0.2393842

 Al 
  0.7532449  0.4917380  0.2378013

 Al 
  0.7515432  0.7502648  0.9989580

 Al 
  0.4925127  0.0061296  0.5109153

 Al 
  0.4919484  0.2469383  0.7406985

 Al 
  0.7621999  0.9946587  0.7334315

 Al 
  0.7610749  0.2555047  0.4922467

 Al 
  0.5029132  0.5081964  0.5092656

 Al 
  0.4807547  0.7499084  0.7422640

 Al 
  0.7583474  0.5093176  0.7501671

 Al 
  0.7537758  0.7417764  0.4827484

