32 
charge = 0 
 Al 
  0.0052522  0.9896020  0.0108658

 Al 
  0.9983899  0.2562955  0.2329328

 Al 
  0.2471091  0.9888124  0.2501485

 Al 
  0.2437392  0.2577236  0.9867816

 Al 
  0.4959804  0.9931934  0.0067212

 Al 
  0.4853757  0.2365291  0.2688555

 Al 
  0.7551124  0.0098473  0.2536978

 Al 
  0.7441637  0.2488540  0.9978677

 Al 
  0.0096914  0.5151651  0.9971041

 Al 
  0.0170734  0.7505878  0.2633929

 Al 
  0.2541322  0.4992302  0.2563648

 Al 
  0.2576803  0.7413123  0.9961735

 Al 
  0.0178098  0.9869140  0.4932689

 Al 
  0.9941228  0.2439421  0.7695708

 Al 
  0.2393000  0.0026174  0.7628645

 Al 
  0.2371739  0.2409076  0.5145958

 Al 
  0.0063524  0.4978083  0.5027635

 Al 
  0.0085936  0.7519751  0.7688951

 Al 
  0.2405425  0.5181340  0.7213541

 Al 
  0.2542795  0.7689298  0.5066853

 Al 
  0.4921365  0.4794292  0.9914088

 Al 
  0.4952638  0.7523588  0.2375291

 Al 
  0.7567546  0.4905685  0.2359066

 Al 
  0.7493466  0.7564366  0.0032746

 Al 
  0.4949718  0.0051606  0.5169039

 Al 
  0.4940968  0.2469333  0.7439656

 Al 
  0.7573301  0.9968034  0.7365205

 Al 
  0.7588288  0.2524615  0.4956227

 Al 
  0.4972489  0.5143545  0.5085565

 Al 
  0.4814044  0.7514418  0.7393854

 Al 
  0.7550579  0.5116888  0.7496386

 Al 
  0.7556841  0.7439817  0.4803834

