32 
charge = 0 
 Al 
  0.0065739  0.9892877  0.0106666

 Al 
  0.9999059  0.2562658  0.2336543

 Al 
  0.2474358  0.9896181  0.2495235

 Al 
  0.2442367  0.2586147  0.9872865

 Al 
  0.4952948  0.9933766  0.0055765

 Al 
  0.4852866  0.2359227  0.2680647

 Al 
  0.7548302  0.0097297  0.2545344

 Al 
  0.7442948  0.2489134  0.9981944

 Al 
  0.0082211  0.5152468  0.9987315

 Al 
  0.0173766  0.7513923  0.2631392

 Al 
  0.2531929  0.4985780  0.2559465

 Al 
  0.2568697  0.7412381  0.9967910

 Al 
  0.0174818  0.9870477  0.4935523

 Al 
  0.9935783  0.2445065  0.7695683

 Al 
  0.2399423  0.0026867  0.7629536

 Al 
  0.2375427  0.2408123  0.5147295

 Al 
  0.0048030  0.4984295  0.5022870

 Al 
  0.0096641  0.7520977  0.7684459

 Al 
  0.2409448  0.5185362  0.7219964

 Al 
  0.2539095  0.7688580  0.5068190

 Al 
  0.4905277  0.4793240  0.9921984

 Al 
  0.4960918  0.7526261  0.2377333

 Al 
  0.7561730  0.4906849  0.2362049

 Al 
  0.7497772  0.7552423  0.0024603

 Al 
  0.4944359  0.0054502  0.5158854

 Al 
  0.4936352  0.2468752  0.7432813

 Al 
  0.7583090  0.9964259  0.7358349

 Al 
  0.7592743  0.2530258  0.4948926

 Al 
  0.4982984  0.5133422  0.5088832

 Al 
  0.4810009  0.7510779  0.7397047

 Al 
  0.7557386  0.5112866  0.7497438

 Al 
  0.7553475  0.7434842  0.4807175

