32 
charge = 0 
 Al 
  0.0078882  0.9890018  0.0104586

 Al 
  0.0015185  0.2561990  0.2344525

 Al 
  0.2478120  0.9905364  0.2488478

 Al 
  0.2447527  0.2594884  0.9878768

 Al 
  0.4946092  0.9936241  0.0043476

 Al 
  0.4852099  0.2353732  0.2671996

 Al 
  0.7545344  0.0095453  0.2553822

 Al 
  0.7444149  0.2489270  0.9985013

 Al 
  0.0067101  0.5152492  0.0004133

 Al 
  0.0176105  0.7521360  0.2627815

 Al 
  0.2522375  0.4979023  0.2555183

 Al 
  0.2560443  0.7411811  0.9974494

 Al 
  0.0170016  0.9873063  0.4939236

 Al 
  0.9930251  0.2451191  0.7694755

 Al 
  0.2406317  0.0027511  0.7630278

 Al 
  0.2379263  0.2407566  0.5148087

 Al 
  0.0031719  0.4990681  0.5017598

 Al 
  0.0106839  0.7522722  0.7678531

 Al 
  0.2413965  0.5188010  0.7228095

 Al 
  0.2535382  0.7686971  0.5068932

 Al 
  0.4889213  0.4793179  0.9930288

 Al 
  0.4969729  0.7528489  0.2380204

 Al 
  0.7555356  0.4908618  0.2365427

 Al 
  0.7502129  0.7540270  0.0016237

 Al 
  0.4939211  0.0056965  0.5147790

 Al 
  0.4931872  0.2468455  0.7426105

 Al 
  0.7592854  0.9960237  0.7351864

 Al 
  0.7597235  0.2536112  0.4941909

 Al 
  0.4993936  0.5122246  0.5091184

 Al 
  0.4807324  0.7507425  0.7401540

 Al 
  0.7564081  0.5108522  0.7498465

 Al 
  0.7549899  0.7430140  0.4811185

