32 
charge = 0 
 Al 
  0.9983578  0.9915771  0.0117544

 Al 
  0.9920177  0.2559712  0.2302856

 Al 
  0.2461190  0.9863794  0.2525556

 Al 
  0.2416997  0.2528699  0.9856703

 Al 
  0.4995013  0.9933543  0.0115019

 Al 
  0.4859970  0.2405227  0.2719605

 Al 
  0.7562633  0.0095428  0.2496560

 Al 
  0.7432998  0.2478664  0.9957502

 Al 
  0.0168469  0.5135043  0.9894362

 Al 
  0.0144820  0.7453604  0.2630699

 Al 
  0.2587545  0.5021707  0.2581692

 Al 
  0.2616430  0.7419917  0.9933927

 Al 
  0.0171180  0.9880538  0.4931687

 Al 
  0.9966190  0.2416786  0.7680919

 Al 
  0.2366219  0.0020506  0.7622098

 Al 
  0.2356121  0.2418222  0.5130130

 Al 
  0.0128620  0.4947651  0.5043042

 Al 
  0.0022214  0.7522004  0.7690399

 Al 
  0.2393904  0.5141169  0.7208183

 Al 
  0.2561086  0.7680078  0.5052002

 Al 
  0.5004666  0.4814848  0.9878892

 Al 
  0.4918271  0.7502884  0.2377667

 Al 
  0.7589958  0.4909782  0.2349067

 Al 
  0.7471511  0.7622308  0.0071680

 Al 
  0.4980422  0.0031224  0.5208641

 Al 
  0.4966524  0.2476561  0.7477315

 Al 
  0.7521459  0.9983986  0.7407715

 Al 
  0.7565789  0.2498404  0.4999455

 Al 
  0.4926118  0.5180956  0.5054614

 Al 
  0.4855911  0.7537449  0.7398384

 Al 
  0.7513118  0.5133731  0.7489505

 Al 
  0.7570888  0.7469803  0.4796569

