32 
charge = 0 
 Al 
  0.0018922  0.9905042  0.0113311

 Al 
  0.9949792  0.2562287  0.2314291

 Al 
  0.2464890  0.9872729  0.2514962

 Al 
  0.2426093  0.2554057  0.9859190

 Al 
  0.4977093  0.9930350  0.0092743

 Al 
  0.4856480  0.2383087  0.2705609

 Al 
  0.7557472  0.0098770  0.2516521

 Al 
  0.7437788  0.2485100  0.9969333

 Al 
  0.0132654  0.5146107  0.9932169

 Al 
  0.0160116  0.7482625  0.2635748

 Al 
  0.2564403  0.5007611  0.2573412

 Al 
  0.2596641  0.7415759  0.9947527

 Al 
  0.0179632  0.9871083  0.4929471

 Al 
  0.9954198  0.2427132  0.7691612

 Al 
  0.2378669  0.0023984  0.7625835

 Al 
  0.2363286  0.2412900  0.5140080

 Al 
  0.0098621  0.4962947  0.5037164

 Al 
  0.0056594  0.7519021  0.7694087

 Al 
  0.2397691  0.5165462  0.7205039

 Al 
  0.2551965  0.7687355  0.5061074

 Al 
  0.4962044  0.4801198  0.9895760

 Al 
  0.4934087  0.7514888  0.2373781

 Al 
  0.7579947  0.4905537  0.2353126

 Al 
  0.7482699  0.7593510  0.0052386

 Al 
  0.4964111  0.0042634  0.5191043

 Al 
  0.4953171  0.2472019  0.7457576

 Al 
  0.7548314  0.9976536  0.7384350

 Al 
  0.7577199  0.2511262  0.4976165

 Al 
  0.4948109  0.5164720  0.5073264

 Al 
  0.4830145  0.7524875  0.7391701

 Al 
  0.7532783  0.5125811  0.7493429

 Al 
  0.7564403  0.7453591  0.4798228

