32 
charge = 0 
 Al 
  0.0012029  0.9907047  0.0114190

 Al 
  0.9943555  0.2561928  0.2311730

 Al 
  0.2463962  0.9870427  0.2517313

 Al 
  0.2424076  0.2549205  0.9858175

 Al 
  0.4980620  0.9930585  0.0097421

 Al 
  0.4857099  0.2387134  0.2708628

 Al 
  0.7558611  0.0098386  0.2512499

 Al 
  0.7436909  0.2484060  0.9967192

 Al 
  0.0139746  0.5144374  0.9924583

 Al 
  0.0157455  0.7477328  0.2635315

 Al 
  0.2568994  0.5010519  0.2575207

 Al 
  0.2600589  0.7416452  0.9944805

 Al 
  0.0178766  0.9872370  0.4929471

 Al 
  0.9956685  0.2424929  0.7690040

 Al 
  0.2376046  0.0023415  0.7625167

 Al 
  0.2361740  0.2413866  0.5138446

 Al 
  0.0105032  0.4959928  0.5038649

 Al 
  0.0050171  0.7519306  0.7694062

 Al 
  0.2396589  0.5161304  0.7204693

 Al 
  0.2553797  0.7686340  0.5059527

 Al 
  0.4970348  0.4803351  0.9892295

 Al 
  0.4930721  0.7512772  0.2374115

 Al 
  0.7582125  0.4906007  0.2352173

 Al 
  0.7480508  0.7599277  0.0056247

 Al 
  0.4967192  0.0040543  0.5194904

 Al 
  0.4955732  0.2472774  0.7461351

 Al 
  0.7543154  0.9978108  0.7388619

 Al 
  0.7574959  0.2508675  0.4980508

 Al 
  0.4943518  0.5168333  0.5070071

 Al 
  0.4834476  0.7527214  0.7392295

 Al 
  0.7529033  0.5127457  0.7492736

 Al 
  0.7565776  0.7456611  0.4797572

