32 
charge = 0 
 Al 
  0.9976214  0.9918135  0.0118323

 Al 
  0.9914720  0.2558982  0.2300988

 Al 
  0.2460720  0.9862779  0.2527325

 Al 
  0.2415524  0.2523241  0.9857037

 Al 
  0.4998701  0.9934830  0.0119190

 Al 
  0.4860799  0.2410264  0.2722105

 Al 
  0.7563475  0.0094327  0.2492624

 Al 
  0.7431934  0.2476994  0.9954755

 Al 
  0.0175796  0.5132097  0.9886775

 Al 
  0.0141156  0.7446958  0.2628781

 Al 
  0.2592236  0.5024405  0.2583102

 Al 
  0.2620427  0.7420982  0.9931154

 Al 
  0.0168197  0.9883360  0.4932788

 Al 
  0.9968442  0.2414905  0.7677875

 Al 
  0.2363918  0.0019591  0.7621232

 Al 
  0.2354883  0.2419422  0.5127568

 Al 
  0.0133979  0.4944508  0.5043723

 Al 
  0.0014578  0.7523093  0.7688530

 Al 
  0.2393718  0.5135241  0.7210361

 Al 
  0.2562893  0.7677937  0.5049787

 Al 
  0.5013576  0.4818511  0.9875637

 Al 
  0.4915413  0.7500037  0.2379152

 Al 
  0.7591703  0.4911230  0.2348460

 Al 
  0.7469172  0.7628063  0.0075553

 Al 
  0.4983974  0.0028650  0.5211648

 Al 
  0.4969358  0.2477699  0.7481560

 Al 
  0.7515729  0.9985360  0.7413074

 Al 
  0.7563413  0.2495842  0.5004628

 Al 
  0.4922009  0.5183679  0.5050059

 Al 
  0.4862395  0.7540233  0.7400884

 Al 
  0.7508873  0.5135253  0.7488540

 Al 
  0.7572063  0.7473405  0.4796743

