32 
charge = 0 
 Al 
  0.9930140  0.9933828  0.0122147

 Al 
  0.9885352  0.2552992  0.2292869

 Al 
  0.2459693  0.9862383  0.2535444

 Al 
  0.2409856  0.2487265  0.9865526

 Al 
  0.5021199  0.9947800  0.0142344

 Al 
  0.4867024  0.2444805  0.2735038

 Al 
  0.7566643  0.0084785  0.2470311

 Al 
  0.7424843  0.2464321  0.9935300

 Al 
  0.0220917  0.5108646  0.9840713

 Al 
  0.0114685  0.7400834  0.2610316

 Al 
  0.2620415  0.5039453  0.2589117

 Al 
  0.2644535  0.7429422  0.9913767

 Al 
  0.0140439  0.9906861  0.4944075

 Al 
  0.9980719  0.2404770  0.7652406

 Al 
  0.2351542  0.0012066  0.7615155

 Al 
  0.2349463  0.2426897  0.5107594

 Al 
  0.0160685  0.4925239  0.5043748

 Al 
  0.9962725  0.7533216  0.7668853

 Al 
  0.2397790  0.5092087  0.7235731

 Al 
  0.2573165  0.7660091  0.5034021

 Al 
  0.5069972  0.4848027  0.9857136

 Al 
  0.4900958  0.7479976  0.2393384

 Al 
  0.7600490  0.4924632  0.2346258

 Al 
  0.7454334  0.7661947  0.0098782

 Al 
  0.5007463  0.0011435  0.5225286

 Al 
  0.4987166  0.2486300  0.7509133

 Al 
  0.7478491  0.9992847  0.7450906

 Al 
  0.7548401  0.2480211  0.5039713

 Al 
  0.4900153  0.5196414  0.5016979

 Al 
  0.4911514  0.7558549  0.7424806

 Al 
  0.7481189  0.5144213  0.7481164

 Al 
  0.7578016  0.7497698  0.4801978

