32 
charge = 0 
 Al 
  0.9906911  0.9942367  0.0123150

 Al 
  0.9873385  0.2549094  0.2291198

 Al 
  0.2460175  0.9865935  0.2537709

 Al 
  0.2409584  0.2467415  0.9874214

 Al 
  0.5031979  0.9957824  0.0152530

 Al 
  0.4871145  0.2464333  0.2739914

 Al 
  0.7566593  0.0078437  0.2460856

 Al 
  0.7421192  0.2456623  0.9923977

 Al 
  0.0243416  0.5093473  0.9817992

 Al 
  0.0099092  0.7374437  0.2596592

 Al 
  0.2633743  0.5045864  0.2589872

 Al 
  0.2656119  0.7435003  0.9904621

 Al 
  0.0120390  0.9922392  0.4952465

 Al 
  0.9985657  0.2400574  0.7635068

 Al 
  0.2346629  0.0006918  0.7611603

 Al 
  0.2348510  0.2430375  0.5094624

 Al 
  0.0169657  0.4915722  0.5040901

 Al 
  0.9933543  0.7540444  0.7653557

 Al 
  0.2403718  0.5066333  0.7256398

 Al 
  0.2577447  0.7648186  0.5025011

 Al 
  0.5099203  0.4867692  0.9849005

 Al 
  0.4895946  0.7468529  0.2403854

 Al 
  0.7603547  0.4934323  0.2346072

 Al 
  0.7446624  0.7677380  0.0109920

 Al 
  0.5020172  0.0002166  0.5228677

 Al 
  0.4996040  0.2491535  0.7523860

 Al 
  0.7458529  0.9995953  0.7473318

 Al 
  0.7540505  0.2472439  0.5059366

 Al 
  0.4891812  0.5200238  0.4997562

 Al 
  0.4942169  0.7568227  0.7442305

 Al 
  0.7466450  0.5148507  0.7476264

 Al 
  0.7580132  0.7511262  0.4807522

