32 
charge = 0 
 Al 
  0.9922331  0.9936649  0.0122568

 Al 
  0.9881132  0.2551742  0.2292127

 Al 
  0.2459792  0.9863299  0.2536335

 Al 
  0.2409559  0.2480744  0.9868088

 Al 
  0.5024875  0.9950881  0.0145859

 Al 
  0.4868311  0.2451203  0.2736808

 Al 
  0.7566766  0.0082768  0.2466969

 Al 
  0.7423618  0.2461821  0.9931612

 Al 
  0.0228491  0.5103819  0.9833053

 Al 
  0.0109611  0.7392208  0.2606059

 Al 
  0.2624981  0.5041706  0.2589575

 Al 
  0.2648470  0.7431179  0.9910735

 Al 
  0.0134177  0.9911811  0.4946698

 Al 
  0.9982476  0.2403297  0.7646936

 Al 
  0.2349785  0.0010457  0.7614004

 Al 
  0.2348993  0.2428098  0.5103473

 Al 
  0.0164051  0.4922021  0.5043018

 Al 
  0.9953171  0.7535493  0.7664138

 Al 
  0.2399448  0.5083733  0.7242067

 Al 
  0.2574687  0.7656317  0.5031063

 Al 
  0.5079724  0.4854240  0.9854302

 Al 
  0.4899089  0.7476214  0.2396651

 Al 
  0.7601616  0.4927652  0.2346134

 Al 
  0.7451760  0.7667281  0.0102569

 Al 
  0.5011670  0.0008366  0.5226709

 Al 
  0.4990174  0.2487996  0.7514022

 Al 
  0.7471883  0.9993936  0.7458158

 Al 
  0.7545790  0.2477600  0.5046161

 Al 
  0.4897134  0.5197886  0.5010643

 Al 
  0.4921353  0.7561779  0.7430263

 Al 
  0.7476288  0.5145673  0.7479630

 Al 
  0.7578796  0.7502153  0.4803599

