32 
charge = 0 
 Al 
  0.9885018  0.9950918  0.0123249

 Al 
  0.9863843  0.2544849  0.2291372

 Al 
  0.2461116  0.9871801  0.2538699

 Al 
  0.2411329  0.2447082  0.9885686

 Al 
  0.5041533  0.9969952  0.0161428

 Al 
  0.4876009  0.2484332  0.2743391

 Al 
  0.7565182  0.0071556  0.2453505

 Al 
  0.7417851  0.2448654  0.9912257

 Al 
  0.0264554  0.5076729  0.9796681

 Al 
  0.0082842  0.7347260  0.2580392

 Al 
  0.2645488  0.5051012  0.2588634

 Al 
  0.2666663  0.7441302  0.9895537

 Al 
  0.0097186  0.9939483  0.4962106

 Al 
  0.9989406  0.2397121  0.7615378

 Al 
  0.2343015  0.0000916  0.7607755

 Al 
  0.2349079  0.2433209  0.5080107

 Al 
  0.0174991  0.4906898  0.5036199

 Al 
  0.9903557  0.7548661  0.7635253

 Al 
  0.2412442  0.5039194  0.7281409

 Al 
  0.2580652  0.7634969  0.5016014

 Al 
  0.5127605  0.4889956  0.9842223

 Al 
  0.4892889  0.7457007  0.2416044

 Al 
  0.7605477  0.4945572  0.2346493

 Al 
  0.7439149  0.7690560  0.0120118

 Al 
  0.5032709  0.9993094  0.5229320

 Al 
  0.5004158  0.2497055  0.7538377

 Al 
  0.7438728  0.9998552  0.7497154

 Al 
  0.7532622  0.2465076  0.5079452

 Al 
  0.4885996  0.5202168  0.4977637

 Al 
  0.4975323  0.7577558  0.7462588

 Al 
  0.7452057  0.5152480  0.7470546

 Al 
  0.7581518  0.7525036  0.4814972

