32 
charge = 0 
 Al 
  0.9892085  0.9948097  0.0123335

 Al 
  0.9866727  0.2546285  0.2291112

 Al 
  0.2460757  0.9869610  0.2538501

 Al 
  0.2410512  0.2453864  0.9881590

 Al 
  0.5038525  0.9965695  0.0158631

 Al 
  0.4874301  0.2477687  0.2742414

 Al 
  0.7565801  0.0073870  0.2455683

 Al 
  0.7418915  0.2451302  0.9916168

 Al 
  0.0257747  0.5082434  0.9803549

 Al 
  0.0088263  0.7356307  0.2586011

 Al 
  0.2641800  0.5049453  0.2589290

 Al 
  0.2663309  0.7439137  0.9898532

 Al 
  0.0105193  0.9933679  0.4958789

 Al 
  0.9988305  0.2398186  0.7622147

 Al 
  0.2344055  0.0002995  0.7609066

 Al 
  0.2348708  0.2432355  0.5085082

 Al 
  0.0173642  0.4909720  0.5037956

 Al 
  0.9913544  0.7545852  0.7641627

 Al 
  0.2409225  0.5048302  0.7272685

 Al 
  0.2579736  0.7639461  0.5018972

 Al 
  0.5118323  0.4882308  0.9844302

 Al 
  0.4893669  0.7460806  0.2411836

 Al 
  0.7604970  0.4941686  0.2346282

 Al 
  0.7441587  0.7686488  0.0116863

 Al 
  0.5028600  0.9996065  0.5229419

 Al 
  0.5001572  0.2495211  0.7533612

 Al 
  0.7445238  0.9997748  0.7489109

 Al 
  0.7535233  0.2467464  0.5072781

 Al 
  0.4887617  0.5201747  0.4984246

 Al 
  0.4964111  0.7574526  0.7455596

 Al 
  0.7456760  0.5151218  0.7472538

 Al 
  0.7581135  0.7520469  0.4812299

