32 
charge = 0 
 Al 
  0.9878249  0.9953703  0.0123038

 Al 
  0.9861269  0.2543389  0.2291842

 Al 
  0.2461487  0.9874189  0.2538773

 Al 
  0.2412356  0.2440362  0.9890030

 Al 
  0.5044317  0.9974370  0.0164051

 Al 
  0.4877791  0.2490904  0.2744196

 Al 
  0.7564403  0.0069229  0.2451648

 Al 
  0.7416873  0.2446030  0.9908408

 Al 
  0.0271076  0.5070974  0.9790097

 Al 
  0.0077447  0.7338300  0.2574588

 Al 
  0.2648891  0.5052374  0.2587731

 Al 
  0.2669843  0.7443518  0.9892592

 Al 
  0.0088981  0.9945337  0.4965484

 Al 
  0.9990359  0.2396144  0.7608485

 Al 
  0.2342149  0.9998775  0.7606418

 Al 
  0.2349649  0.2433951  0.5075033

 Al 
  0.0175907  0.4904213  0.5034268

 Al 
  0.9893656  0.7551520  0.7628645

 Al 
  0.2415945  0.5030110  0.7290444

 Al 
  0.2581419  0.7630414  0.5013143

 Al 
  0.5136627  0.4897777  0.9840367

 Al 
  0.4892357  0.7453294  0.2420363

 Al 
  0.7605849  0.4949545  0.2346765

 Al 
  0.7436785  0.7694273  0.0123199

 Al 
  0.5036706  0.9990223  0.5228900

 Al 
  0.5006584  0.2498874  0.7543030

 Al 
  0.7432342  0.9999307  0.7505210

 Al 
  0.7530060  0.2462799  0.5086060

 Al 
  0.4884709  0.5202391  0.4971128

 Al 
  0.4986597  0.7580491  0.7469754

 Al 
  0.7447515  0.5153693  0.7468467

 Al 
  0.7581803  0.7529528  0.4817831

