32 
charge = 0 
 Al 
  0.9835318  0.9974692  0.0115390

 Al 
  0.9851505  0.2531273  0.2304267

 Al 
  0.2464915  0.9901700  0.2535134

 Al 
  0.2430065  0.2385959  0.9935944

 Al 
  0.5057213  0.0018130  0.0179211

 Al 
  0.4897084  0.2541533  0.2742909

 Al 
  0.7551087  0.0051148  0.2450064

 Al 
  0.7412814  0.2427627  0.9879375

 Al 
  0.0311358  0.5021447  0.9748082

 Al 
  0.0035295  0.7269380  0.2519615

 Al 
  0.2664633  0.5055876  0.2568771

 Al 
  0.2688184  0.7463405  0.9870501

 Al 
  0.0014281  0.9994728  0.4995013

 Al 
  0.9991585  0.2391206  0.7546433

 Al 
  0.2342656  0.9978108  0.7593609

 Al 
  0.2362841  0.2434694  0.5028996

 Al 
  0.0166328  0.4888236  0.5012140

 Al 
  0.9816049  0.7576333  0.7565715

 Al 
  0.2458010  0.4956636  0.7374573

 Al 
  0.2580318  0.7591703  0.4994196

 Al 
  0.5200510  0.4969333  0.9834550

 Al 
  0.4898842  0.7427937  0.2459457

 Al 
  0.7602681  0.4985422  0.2351901

 Al 
  0.7420375  0.7709000  0.0142184

 Al 
  0.5063895  0.9970422  0.5212477

 Al 
  0.5019417  0.2512796  0.7576259

 Al 
  0.7385872  0.0004195  0.7572892

 Al 
  0.7509727  0.2448270  0.5137270

 Al 
  0.4889065  0.5195696  0.4923977

 Al 
  0.5080565  0.7599797  0.7534033

 Al 
  0.7417133  0.5160178  0.7446822

 Al 
  0.7580380  0.7563140  0.4848238

