32 
charge = 0 
 Al 
  0.9854896  0.9964074  0.0120935

 Al 
  0.9854091  0.2537684  0.2295691

 Al 
  0.2463096  0.9885451  0.2537944

 Al 
  0.2418531  0.2414522  0.9909336

 Al 
  0.5052881  0.9993292  0.0172628

 Al 
  0.4885662  0.2515680  0.2745495

 Al 
  0.7559787  0.0060356  0.2447540

 Al 
  0.7413878  0.2436414  0.9893929

 Al 
  0.0293414  0.5048005  0.9767326

 Al 
  0.0056940  0.7304502  0.2550319

 Al 
  0.2659349  0.5055888  0.2581630

 Al 
  0.2680362  0.7452515  0.9881664

 Al 
  0.0055307  0.9968467  0.4979122

 Al 
  0.9992476  0.2393149  0.7580330

 Al 
  0.2340552  0.9989753  0.7600898

 Al 
  0.2353782  0.2435647  0.5054317

 Al 
  0.0175338  0.4895178  0.5025209

 Al 
  0.9856047  0.7563017  0.7600874

 Al 
  0.2432540  0.4995062  0.7328177

 Al 
  0.2582743  0.7612346  0.5002958

 Al 
  0.5169237  0.4929867  0.9835268

 Al 
  0.4892802  0.7439916  0.2438085

 Al 
  0.7605861  0.4965843  0.2348485

 Al 
  0.7428283  0.7705064  0.0133657

 Al 
  0.5051000  0.9979914  0.5224209

 Al 
  0.5014442  0.2505767  0.7559985

 Al 
  0.7408928  0.0001794  0.7536879

 Al 
  0.7520358  0.2454866  0.5110997

 Al 
  0.4883149  0.5201228  0.4947107

 Al 
  0.5030877  0.7590763  0.7499010

 Al 
  0.7431377  0.5157665  0.7459433

 Al 
  0.7582038  0.7546272  0.4830590

