32 
charge = 0 
 Al 
  0.9845763  0.9968653  0.0119091

 Al 
  0.9852285  0.2534998  0.2298673

 Al 
  0.2463876  0.9891763  0.2537003

 Al 
  0.2422714  0.2402554  0.9919756

 Al 
  0.5055468  0.0003181  0.0175771

 Al 
  0.4890018  0.2526781  0.2745013

 Al 
  0.7556668  0.0056371  0.2447552

 Al 
  0.7413061  0.2432392  0.9887567

 Al 
  0.0301978  0.5036991  0.9758366

 Al 
  0.0047671  0.7289367  0.2537968

 Al 
  0.2662504  0.5056445  0.2577150

 Al 
  0.2684211  0.7456958  0.9876838

 Al 
  0.0038575  0.9979432  0.4985719

 Al 
  0.9992562  0.2392159  0.7566457

 Al 
  0.2340874  0.9985112  0.7598040

 Al 
  0.2356913  0.2435672  0.5044020

 Al 
  0.0172727  0.4891812  0.5020123

 Al 
  0.9838993  0.7568549  0.7586716

 Al 
  0.2442169  0.4978862  0.7347099

 Al 
  0.2582310  0.7603745  0.4998874

 Al 
  0.5183060  0.4945881  0.9834229

 Al 
  0.4894523  0.7434422  0.2446847

 Al 
  0.7605007  0.4973887  0.2349698

 Al 
  0.7424731  0.7707886  0.0137666

 Al 
  0.5056878  0.9975645  0.5220212

 Al 
  0.5017091  0.2508824  0.7567200

 Al 
  0.7398805  0.0002809  0.7551879

 Al 
  0.7515915  0.2451760  0.5122234

 Al 
  0.4884498  0.5199507  0.4936822

 Al 
  0.5051705  0.7594909  0.7513390

 Al 
  0.7424843  0.5159039  0.7454544

 Al 
  0.7581617  0.7553624  0.4837520

