32 
charge = 0 
 Al 
  0.9826358  0.9988899  0.0092508

 Al 
  0.9863175  0.2520420  0.2335033

 Al 
  0.2466821  0.9939545  0.2526422

 Al 
  0.2465682  0.2336530  0.9999802

 Al 
  0.5043748  0.0073115  0.0182788

 Al 
  0.4931216  0.2578090  0.2721796

 Al 
  0.7522078  0.0039924  0.2481820

 Al 
  0.7422813  0.2426093  0.9864475

 Al 
  0.0311804  0.4973491  0.9738441

 Al 
  0.0004901  0.7222798  0.2453455

 Al 
  0.2649374  0.5041396  0.2521756

 Al 
  0.2686501  0.7485038  0.9856010

 Al 
  0.9933605  0.0040023  0.5022041

 Al 
  0.9979654  0.2392666  0.7481746

 Al 
  0.2361133  0.9951945  0.7574192

 Al 
  0.2395871  0.2422207  0.4977984

 Al 
  0.0123311  0.4887679  0.4982167

 Al 
  0.9756807  0.7599116  0.7492525

 Al 
  0.2530840  0.4892852  0.7461685

 Al 
  0.2559514  0.7555344  0.4991337

 Al 
  0.5236115  0.5049317  0.9854030

 Al 
  0.4929570  0.7423098  0.2499505

 Al 
  0.7583214  0.5019999  0.2364103

 Al 
  0.7414113  0.7685436  0.0147060

 Al 
  0.5072694  0.9961871  0.5168903

 Al 
  0.5012190  0.2522499  0.7593028

 Al 
  0.7358732  0.0010321  0.7635117

 Al 
  0.7488726  0.2446884  0.5176006

 Al 
  0.4928865  0.5170016  0.4903148

 Al 
  0.5161539  0.7605997  0.7598312

 Al 
  0.7409250  0.5153235  0.7413569

 Al 
  0.7569749  0.7584179  0.4889263

