32 
charge = 0 
 Al 
  0.9824811  0.9985025  0.0102520

 Al 
  0.9856752  0.2523996  0.2321964

 Al 
  0.2466524  0.9925672  0.2529726

 Al 
  0.2451252  0.2352854  0.9975558

 Al 
  0.5052002  0.0052980  0.0182726

 Al 
  0.4916861  0.2567559  0.2731969

 Al 
  0.7534256  0.0042634  0.2466413

 Al 
  0.7417096  0.2423494  0.9867123

 Al 
  0.0317583  0.4989691  0.9737389

 Al 
  0.0013465  0.7235186  0.2477711

 Al 
  0.2658730  0.5048723  0.2541904

 Al 
  0.2689879  0.7477402  0.9859784

 Al 
  0.9961834  0.0025160  0.5013465

 Al 
  0.9985211  0.2391231  0.7503973

 Al 
  0.2352334  0.9961673  0.7582088

 Al 
  0.2381813  0.2428197  0.4996027

 Al 
  0.0142122  0.4885884  0.4993070

 Al 
  0.9774330  0.7591815  0.7518662

 Al 
  0.2501324  0.4913569  0.7432318

 Al 
  0.2569551  0.7567497  0.4989951

 Al 
  0.5227625  0.5021014  0.9843696

 Al 
  0.4915871  0.7421440  0.2485879

 Al 
  0.7592409  0.5008898  0.2358806

 Al 
  0.7414645  0.7698579  0.0147035

 Al 
  0.5072336  0.9963282  0.5187454

 Al 
  0.5017524  0.2519652  0.7589649

 Al 
  0.7365341  0.0007611  0.7614846

 Al 
  0.7496547  0.2445386  0.5164522

 Al 
  0.4910376  0.5181526  0.4906218

 Al 
  0.5136181  0.7605626  0.7576840

 Al 
  0.7408618  0.5158024  0.7426724

 Al 
  0.7574786  0.7578771  0.4874029

