32 
charge = 0 
 Al 
  0.9824947  0.9987129  0.0097755

 Al 
  0.9859698  0.2522177  0.2328202

 Al 
  0.2466734  0.9932590  0.2528068

 Al 
  0.2458257  0.2344513  0.9987488

 Al 
  0.5048327  0.0063004  0.0182899

 Al 
  0.4923692  0.2573165  0.2727254

 Al 
  0.7528414  0.0041087  0.2473578

 Al 
  0.7419633  0.2424298  0.9865390

 Al 
  0.0315541  0.4981474  0.9737315

 Al 
  0.0008861  0.7228380  0.2465682

 Al 
  0.2654559  0.5045344  0.2532288

 Al 
  0.2688580  0.7481226  0.9857693

 Al 
  0.9947639  0.0032758  0.5017932

 Al 
  0.9982575  0.2391800  0.7492723

 Al 
  0.2356430  0.9956859  0.7578301

 Al 
  0.2388545  0.2425387  0.4986968

 Al 
  0.0133149  0.4886528  0.4987612

 Al 
  0.9765061  0.7595589  0.7505569

 Al 
  0.2515581  0.4902963  0.7447280

 Al 
  0.2564898  0.7561334  0.4990310

 Al 
  0.5232427  0.5035221  0.9848386

 Al 
  0.4922368  0.7421786  0.2492785

 Al 
  0.7588152  0.5014653  0.2361306

 Al 
  0.7414126  0.7692614  0.0147258

 Al 
  0.5072892  0.9962353  0.5178580

 Al 
  0.5015222  0.2521150  0.7591691

 Al 
  0.7361628  0.0008861  0.7625266

 Al 
  0.7492723  0.2445857  0.5170598

 Al 
  0.4919051  0.5176105  0.4904077

 Al 
  0.5149386  0.7606059  0.7587817

 Al 
  0.7408458  0.5155995  0.7420313

 Al 
  0.7572459  0.7581753  0.4881590

