32 
charge = 0 
 Al 
  0.9828598  0.9979729  0.0110589

 Al 
  0.9852693  0.2527944  0.2311086

 Al 
  0.2465757  0.9911898  0.2532932

 Al 
  0.2438506  0.2370910  0.9952589

 Al 
  0.5056495  0.0033080  0.0181377

 Al 
  0.4904906  0.2554032  0.2739233

 Al 
  0.7544527  0.0046879  0.2455361

 Al 
  0.7413791  0.2424583  0.9872939

 Al 
  0.0316630  0.5007141  0.9741362

 Al 
  0.0024776  0.7252661  0.2501559

 Al 
  0.2663853  0.5053735  0.2558512

 Al 
  0.2690151  0.7469568  0.9865242

 Al 
  0.9991139  0.0008601  0.5003478

 Al 
  0.9989468  0.2390847  0.7527548

 Al 
  0.2345899  0.9971103  0.7588931

 Al 
  0.2370118  0.2432590  0.5014541

 Al 
  0.0157393  0.4886268  0.5003985

 Al 
  0.9796260  0.7583424  0.7545233

 Al 
  0.2475434  0.4936835  0.7400438

 Al 
  0.2576741  0.7580726  0.4991275

 Al 
  0.5214272  0.4991956  0.9837063

 Al 
  0.4905005  0.7423692  0.2471276

 Al 
  0.7599129  0.4996102  0.2354549

 Al 
  0.7417170  0.7706623  0.0145129

 Al 
  0.5068808  0.9966561  0.5202886

 Al 
  0.5019813  0.2516101  0.7583263

 Al 
  0.7375514  0.0005544  0.7592025

 Al 
  0.7503985  0.2446166  0.5150203

 Al 
  0.4896441  0.5190510  0.4914336

 Al 
  0.5106331  0.7603176  0.7553277

 Al 
  0.7411923  0.5160128  0.7438592

 Al 
  0.7578449  0.7570900  0.4859178

