32 
charge = 0 
 Al 
  0.9824724  0.9986115  0.0100193

 Al 
  0.9858151  0.2523081  0.2325009

 Al 
  0.2466648  0.9929125  0.2528897

 Al 
  0.2454705  0.2348634  0.9981474

 Al 
  0.5050282  0.0057980  0.0182850

 Al 
  0.4920190  0.2570454  0.2729704

 Al 
  0.7531397  0.0041805  0.2469865

 Al 
  0.7418284  0.2423779  0.9866158

 Al 
  0.0316779  0.4985545  0.9737204

 Al 
  0.0011076  0.7231622  0.2471709

 Al 
  0.2656762  0.5047102  0.2537214

 Al 
  0.2689322  0.7479320  0.9858683

 Al 
  0.9954718  0.0029008  0.5015742

 Al 
  0.9983924  0.2391478  0.7498305

 Al 
  0.2354302  0.9959272  0.7580231

 Al 
  0.2385105  0.2426835  0.4991486

 Al 
  0.0137753  0.4886132  0.4990347

 Al 
  0.9769566  0.7593733  0.7512116

 Al 
  0.2508341  0.4908198  0.7439879

 Al 
  0.2567311  0.7564390  0.4990050

 Al 
  0.5230162  0.5028130  0.9845923

 Al 
  0.4919026  0.7421489  0.2489357

 Al 
  0.7590354  0.5011831  0.2360019

 Al 
  0.7414324  0.7695758  0.0147196

 Al 
  0.5072707  0.9962762  0.5183122

 Al 
  0.5016472  0.2520420  0.7590750

 Al 
  0.7363385  0.0008217  0.7620130

 Al 
  0.7494654  0.2445547  0.5167653

 Al 
  0.4914571  0.5178890  0.4904992

 Al 
  0.5142914  0.7605911  0.7582385

 Al 
  0.7408420  0.5157096  0.7423556

 Al 
  0.7573660  0.7580343  0.4877791

