32 
charge = 0 
 Al 
  0.9847508  0.9992971  0.0063029

 Al 
  0.9884956  0.2512549  0.2373905

 Al 
  0.2465286  0.9970459  0.2519764

 Al 
  0.2504232  0.2305072  0.0060938

 Al 
  0.5013180  0.0120068  0.0179484

 Al 
  0.4976264  0.2592731  0.2686488

 Al 
  0.7486585  0.0039342  0.2531385

 Al 
  0.7445238  0.2447886  0.9871194

 Al 
  0.0273699  0.4938617  0.9756472

 Al 
  0.9994691  0.7213294  0.2394485

 Al 
  0.2614809  0.5016843  0.2462230

 Al 
  0.2667232  0.7502190  0.9853918

 Al 
  0.9870786  0.0069477  0.5035852

 Al 
  0.9964346  0.2401205  0.7434954

 Al 
  0.2390278  0.9928729  0.7550641

 Al 
  0.2436810  0.2404213  0.4937812

 Al 
  0.0068660  0.4898520  0.4957613

 Al 
  0.9731894  0.7611653  0.7433580

 Al 
  0.2612952  0.4851579  0.7521323

 Al 
  0.2525828  0.7528724  0.5003515

 Al 
  0.5240050  0.5111405  0.9891218

 Al 
  0.4970088  0.7441476  0.2528711

 Al 
  0.7552027  0.5038166  0.2381615

 Al 
  0.7421328  0.7639263  0.0141750

 Al 
  0.5062868  0.9964828  0.5114611

 Al 
  0.4990124  0.2527239  0.7591023

 Al 
  0.7354710  0.0020469  0.7673024

 Al 
  0.7466128  0.2458604  0.5192193

 Al 
  0.4986832  0.5133483  0.4913173

 Al 
  0.5204173  0.7600144  0.7639857

 Al 
  0.7424521  0.5130192  0.7379115

 Al 
  0.7551940  0.7588609  0.4925140

