32 
charge = 0 
 Al 
  0.9830763  0.9990953  0.0083709

 Al 
  0.9869388  0.2517846  0.2346468

 Al 
  0.2466685  0.9949978  0.2524009

 Al 
  0.2477650  0.2325194  0.0019133

 Al 
  0.5035246  0.0088535  0.0182157

 Al 
  0.4944062  0.2584303  0.2712044

 Al 
  0.7511522  0.0038872  0.2496164

 Al 
  0.7428791  0.2430758  0.9864673

 Al 
  0.0303005  0.4961772  0.9742203

 Al 
  0.0000124  0.7216734  0.2434570

 Al 
  0.2639795  0.5034417  0.2504109

 Al 
  0.2681922  0.7490731  0.9854277

 Al 
  0.9912665  0.0050381  0.5027561

 Al 
  0.9974828  0.2394584  0.7465682

 Al 
  0.2369375  0.9944384  0.7567323

 Al 
  0.2408086  0.2416799  0.4964544

 Al 
  0.0106925  0.4890302  0.4973974

 Al 
  0.9746275  0.7603930  0.7472897

 Al 
  0.2555752  0.4878422  0.7482439

 Al 
  0.2550022  0.7546545  0.4994072

 Al 
  0.5239679  0.5070318  0.9864277

 Al 
  0.4941661  0.7426947  0.2509356

 Al 
  0.7574489  0.5027177  0.2368955

 Al 
  0.7415128  0.7672442  0.0146045

 Al 
  0.5071011  0.9961933  0.5152765

 Al 
  0.5006299  0.2524318  0.7593770

 Al 
  0.7355836  0.0012970  0.7648916

 Al 
  0.7482167  0.2449495  0.5182912

 Al 
  0.4945745  0.5159547  0.4903965

 Al 
  0.5177961  0.7605032  0.7613249

 Al 
  0.7412220  0.5147592  0.7402765

 Al 
  0.7564910  0.7586803  0.4901032

