32 
charge = 0 
 Al 
  0.9837855  0.9992315  0.0073833

 Al 
  0.9876689  0.2515247  0.2359425

 Al 
  0.2466190  0.9960361  0.2521744

 Al 
  0.2490557  0.2314650  0.0039565

 Al 
  0.5024949  0.0104240  0.0181043

 Al 
  0.4959024  0.2589179  0.2700299

 Al 
  0.7499678  0.0038661  0.2512784

 Al 
  0.7436278  0.2437973  0.9866875

 Al 
  0.0290295  0.4950176  0.9748305

 Al 
  0.9996720  0.7213517  0.2414905

 Al 
  0.2628187  0.5026199  0.2484209

 Al 
  0.2675499  0.7496461  0.9853559

 Al 
  0.9891701  0.0060195  0.5032214

 Al 
  0.9969643  0.2397381  0.7450052

 Al 
  0.2379103  0.9936600  0.7559502

 Al 
  0.2421761  0.2410735  0.4951116

 Al 
  0.0088634  0.4893953  0.4965769

 Al 
  0.9737934  0.7608138  0.7453195

 Al 
  0.2583201  0.4864660  0.7502314

 Al 
  0.2538760  0.7537733  0.4998168

 Al 
  0.5240978  0.5091109  0.9876702

 Al 
  0.4955250  0.7433073  0.2519071

 Al 
  0.7564081  0.5033290  0.2374746

 Al 
  0.7417479  0.7656935  0.0144238

 Al 
  0.5067719  0.9962923  0.5134634

 Al 
  0.4998874  0.2525902  0.7593065

 Al 
  0.7354537  0.0016323  0.7661589

 Al 
  0.7474692  0.2453418  0.5188345

 Al 
  0.4965163  0.5147357  0.4907344

 Al 
  0.5192206  0.7603064  0.7627147

 Al 
  0.7417331  0.5139968  0.7391206

 Al 
  0.7559007  0.7588263  0.4913036

