32 
charge = 0 
 Al 
  0.9855230  0.9993045  0.0055455

 Al 
  0.9890896  0.2510668  0.2384288

 Al 
  0.2464457  0.9976870  0.2518662

 Al 
  0.2513564  0.2299403  0.0075491

 Al 
  0.5004777  0.0130476  0.0178221

 Al 
  0.4988961  0.2594377  0.2676179

 Al 
  0.7477291  0.0040270  0.2544565

 Al 
  0.7451921  0.2455955  0.9875278

 Al 
  0.0260618  0.4930944  0.9762858

 Al 
  0.9994084  0.7214878  0.2380625

 Al 
  0.2605131  0.5010086  0.2446624

 Al 
  0.2660735  0.7505953  0.9854797

 Al 
  0.9857024  0.0075306  0.5037634

 Al 
  0.9960893  0.2404386  0.7425350

 Al 
  0.2398446  0.9923568  0.7544218

 Al 
  0.2447453  0.2399745  0.4929150

 Al 
  0.0054614  0.4902010  0.4952280

 Al 
  0.9729234  0.7613546  0.7420759

 Al 
  0.2633694  0.4843312  0.7533427

 Al 
  0.2516398  0.7522573  0.5007648

 Al 
  0.5238218  0.5124387  0.9901936

 Al 
  0.4980459  0.7448258  0.2535085

 Al 
  0.7543216  0.5040666  0.2386825

 Al 
  0.7424769  0.7626553  0.0139770

 Al 
  0.5058834  0.9966598  0.5100416

 Al 
  0.4983763  0.2527919  0.7588968

 Al 
  0.7355589  0.0023687  0.7679855

 Al 
  0.7459754  0.2462700  0.5193790

 Al 
  0.5002265  0.5123385  0.4918284

 Al 
  0.5210757  0.7597730  0.7647480

 Al 
  0.7430387  0.5122494  0.7370984

 Al 
  0.7546594  0.7588226  0.4933085

