32 
charge = 0 
 Al 
  0.9868385  0.9992637  0.0043847

 Al 
  0.9900178  0.2507722  0.2400686

 Al 
  0.2462848  0.9985657  0.2517462

 Al 
  0.2527437  0.2292300  0.0097223

 Al 
  0.4991894  0.0145426  0.0176043

 Al 
  0.5009492  0.2595750  0.2659336

 Al 
  0.7462811  0.0042337  0.2564861

 Al 
  0.7462774  0.2470001  0.9883087

 Al 
  0.0238478  0.4919633  0.9773439

 Al 
  0.9994245  0.7219816  0.2359883

 Al 
  0.2589971  0.4999431  0.2422392

 Al 
  0.2649696  0.7511373  0.9857123

 Al 
  0.9837063  0.0083350  0.5039218

 Al 
  0.9956153  0.2410066  0.7411960

 Al 
  0.2411551  0.9916279  0.7533934

 Al 
  0.2463975  0.2393174  0.4916762

 Al 
  0.0032956  0.4907777  0.4944582

 Al 
  0.9727377  0.7615588  0.7402369

 Al 
  0.2665338  0.4831914  0.7550517

 Al 
  0.2501423  0.7513118  0.5014492

 Al 
  0.5233738  0.5142468  0.9919175

 Al 
  0.4996250  0.7459965  0.2544428

 Al 
  0.7529182  0.5043179  0.2395525

 Al 
  0.7431253  0.7606740  0.0136441

 Al 
  0.5051718  0.9969952  0.5078387

 Al 
  0.4973788  0.2528513  0.7585008

 Al 
  0.7357903  0.0029182  0.7688741

 Al 
  0.7449285  0.2469643  0.5194619

 Al 
  0.5026199  0.5107321  0.4927504

 Al 
  0.5218368  0.7593510  0.7657319

 Al 
  0.7440572  0.5109388  0.7359116

 Al 
  0.7537721  0.7586803  0.4944508

