32 
charge = 0 
 Al 
  0.9892901  0.9990879  0.0025011

 Al 
  0.9915697  0.2502562  0.2428729

 Al 
  0.2459321  0.9996956  0.2516917

 Al 
  0.2548500  0.2285233  0.0130909

 Al 
  0.4971808  0.0166836  0.0171699

 Al 
  0.5045852  0.2595428  0.2628979

 Al 
  0.7438790  0.0047225  0.2597347

 Al 
  0.7481907  0.2497129  0.9899856

 Al 
  0.0197168  0.4901898  0.9792189

 Al 
  0.9997017  0.7234283  0.2327261

 Al 
  0.2564749  0.4981362  0.2382073

 Al 
  0.2628880  0.7519442  0.9863583

 Al 
  0.9807138  0.0094290  0.5038798

 Al 
  0.9950262  0.2421687  0.7393446

 Al 
  0.2434496  0.9906378  0.7516014

 Al 
  0.2491448  0.2383521  0.4898866

 Al 
  0.9997339  0.4918271  0.4933035

 Al 
  0.9729951  0.7616578  0.7375526

 Al 
  0.2715806  0.4816568  0.7575343

 Al 
  0.2475756  0.7496980  0.5026546

 Al 
  0.5222142  0.5167034  0.9949532

 Al 
  0.5021397  0.7482191  0.2558871

 Al 
  0.7505346  0.5044057  0.2412034

 Al 
  0.7445300  0.7574192  0.0130377

 Al 
  0.5037795  0.9977031  0.5042015

 Al 
  0.4957725  0.2527721  0.7576778

 Al 
  0.7363769  0.0039713  0.7699408

 Al 
  0.7430140  0.2482340  0.5191698

 Al 
  0.5065504  0.5079588  0.4945622

 Al 
  0.5224679  0.7585478  0.7668494

 Al 
  0.7460138  0.5084625  0.7341840

 Al 
  0.7521274  0.7582496  0.4961202

