32 
charge = 0 
 Al 
  0.9863819  0.9992835  0.0047720

 Al 
  0.9897047  0.2508725  0.2395141

 Al 
  0.2463430  0.9982860  0.2517796

 Al 
  0.2522858  0.2294453  0.0090033

 Al 
  0.4996188  0.0140562  0.0176811

 Al 
  0.5002475  0.2595428  0.2665116

 Al 
  0.7467675  0.0041557  0.2558079

 Al 
  0.7459074  0.2465088  0.9880266

 Al 
  0.0246151  0.4923370  0.9769813

 Al 
  0.9994047  0.7217836  0.2366752

 Al 
  0.2595070  0.5003032  0.2430536

 Al 
  0.2653532  0.7509603  0.9856208

 Al 
  0.9843597  0.0080776  0.5038835

 Al 
  0.9957651  0.2408049  0.7416267

 Al 
  0.2407096  0.9918630  0.7537424

 Al 
  0.2458418  0.2395327  0.4920784

 Al 
  0.0040208  0.4905797  0.4947094

 Al 
  0.9727711  0.7615031  0.7408346

 Al 
  0.2654794  0.4835565  0.7544985

 Al 
  0.2506497  0.7516299  0.5012153

 Al 
  0.5235459  0.5136664  0.9913296

 Al 
  0.4990991  0.7455881  0.2541347

 Al 
  0.7533934  0.5042510  0.2392518

 Al 
  0.7428914  0.7613398  0.0137592

 Al 
  0.5054218  0.9968752  0.5085788

 Al 
  0.4977130  0.2528390  0.7586431

 Al 
  0.7357012  0.0027264  0.7685981

 Al 
  0.7452886  0.2467242  0.5194557

 Al 
  0.5018167  0.5112767  0.4924249

 Al 
  0.5216153  0.7594983  0.7654275

 Al 
  0.7437008  0.5113955  0.7363002

 Al 
  0.7540778  0.7587384  0.4940795

