32 
charge = 0 
 Al 
  0.9873100  0.9992377  0.0039986

 Al 
  0.9903322  0.2506708  0.2406279

 Al 
  0.2462217  0.9988293  0.2517202

 Al 
  0.2531917  0.2290369  0.0104302

 Al 
  0.4987662  0.0150129  0.0175239

 Al 
  0.5016620  0.2595923  0.2653433

 Al 
  0.7457935  0.0043191  0.2571605

 Al 
  0.7466549  0.2475125  0.9886107

 Al 
  0.0230546  0.4915957  0.9777152

 Al 
  0.9994567  0.7222118  0.2353089

 Al 
  0.2584847  0.4995805  0.2414225

 Al 
  0.2645735  0.7513106  0.9858163

 Al 
  0.9830677  0.0085813  0.5039441

 Al 
  0.9954742  0.2412195  0.7407826

 Al 
  0.2416069  0.9914027  0.7530395

 Al 
  0.2469531  0.2391070  0.4912863

 Al 
  0.0025704  0.4909806  0.4942119

 Al 
  0.9727340  0.7616046  0.7396552

 Al 
  0.2675796  0.4828437  0.7555876

 Al 
  0.2496287  0.7509925  0.5016880

 Al 
  0.5231808  0.5148000  0.9925152

 Al 
  0.5001473  0.7464197  0.2547448

 Al 
  0.7524392  0.5043674  0.2398656

 Al 
  0.7433753  0.7600094  0.0135266

 Al 
  0.5049106  0.9971239  0.5070987

 Al 
  0.4970459  0.2528551  0.7583498

 Al 
  0.7358893  0.0031162  0.7691302

 Al 
  0.7445597  0.2472105  0.5194458

 Al 
  0.5034219  0.5101802  0.4930919

 Al 
  0.5220274  0.7591976  0.7660116

 Al 
  0.7444273  0.5104673  0.7355341

 Al 
  0.7534565  0.7586122  0.4948121

