32 
charge = 0 
 Al 
  0.9937812  0.9986325  0.9996250

 Al 
  0.9939916  0.2492971  0.2475769

 Al 
  0.2450943  0.0003354  0.2521076

 Al 
  0.2573585  0.2290023  0.0175313

 Al 
  0.4948270  0.0188221  0.0161539

 Al 
  0.5109425  0.2589501  0.2573771

 Al 
  0.7402183  0.0058203  0.2641020

 Al 
  0.7514727  0.2549218  0.9936785

 Al 
  0.0119747  0.4875650  0.9823214

 Al 
  0.0007401  0.7275085  0.2281248

 Al 
  0.2526075  0.4952292  0.2319291

 Al 
  0.2588708  0.7529924  0.9882085

 Al 
  0.9768279  0.0104673  0.5029454

 Al 
  0.9948406  0.2446686  0.7374561

 Al 
  0.2474642  0.9898879  0.7485384

 Al 
  0.2535283  0.2374338  0.4878112

 Al 
  0.9942379  0.4938060  0.4917120

 Al 
  0.9749307  0.7610663  0.7343683

 Al 
  0.2786038  0.4803970  0.7607074

 Al 
  0.2433543  0.7467304  0.5045369

 Al 
  0.5192070  0.5189285  0.0002884

 Al 
  0.5056198  0.7524182  0.2579278

 Al 
  0.7468393  0.5037288  0.2445411

 Al 
  0.7478169  0.7526162  0.0118955

 Al 
  0.5009306  0.9992327  0.4986869

 Al 
  0.4937305  0.2517870  0.7560752

 Al 
  0.7377642  0.0061012  0.7706042

 Al 
  0.7394696  0.2503886  0.5174125

 Al 
  0.5123261  0.5033266  0.4980013

 Al 
  0.5217947  0.7570615  0.7670734

 Al 
  0.7498465  0.5037795  0.7325244

 Al 
  0.7489889  0.7571011  0.4981573

