32 
charge = 0 
 Al 
  0.9947428  0.9985372  0.9990743

 Al 
  0.9944471  0.2490768  0.2485397

 Al 
  0.2448740  0.0002203  0.2522883

 Al 
  0.2576630  0.2294144  0.0181971

 Al 
  0.4945820  0.0189656  0.0158730

 Al 
  0.5122630  0.2587669  0.2561779

 Al 
  0.7395624  0.0060740  0.2647443

 Al 
  0.7521447  0.2560591  0.9945683

 Al 
  0.0102619  0.4870848  0.9829340

 Al 
  0.0010358  0.7286223  0.2273526

 Al 
  0.2518885  0.4946686  0.2307658

 Al 
  0.2579612  0.7531632  0.9887196

 Al 
  0.9762178  0.0105391  0.5026162

 Al 
  0.9949557  0.2452688  0.7372680

 Al 
  0.2483206  0.9899089  0.7479073

 Al 
  0.2543896  0.2374115  0.4875390

 Al 
  0.9932120  0.4942614  0.4914150

 Al 
  0.9755668  0.7608113  0.7339439

 Al 
  0.2797374  0.4803921  0.7612160

 Al 
  0.2425165  0.7460386  0.5048611

 Al 
  0.5184211  0.5190535  0.0014269

 Al 
  0.5061779  0.7533303  0.2582830

 Al 
  0.7461747  0.5034800  0.2453369

 Al 
  0.7486535  0.7517697  0.0116244

 Al 
  0.5002512  0.9995966  0.4976907

 Al 
  0.4934793  0.2513811  0.7557423

 Al 
  0.7381058  0.0066012  0.7705683

 Al 
  0.7387060  0.2507933  0.5168259

 Al 
  0.5133063  0.5023984  0.4987340

 Al 
  0.5213826  0.7567447  0.7668383

 Al 
  0.7507190  0.5027573  0.7324675

 Al 
  0.7482786  0.7568066  0.4984580

