32 
charge = 0 
 Al 
  0.9985669  0.9982959  0.9969902

 Al 
  0.9960423  0.2481164  0.2522784

 Al 
  0.2438184  0.9988330  0.2533488

 Al 
  0.2580219  0.2321729  0.0197701

 Al 
  0.4946488  0.0183196  0.0144188

 Al 
  0.5172801  0.2579427  0.2512957

 Al 
  0.7375006  0.0071048  0.2660970

 Al 
  0.7546891  0.2605119  0.9984147

 Al 
  0.0031904  0.4855020  0.9852718

 Al 
  0.0024392  0.7339377  0.2251077

 Al 
  0.2493255  0.4927169  0.2269046

 Al 
  0.2541570  0.7537114  0.9911514

 Al 
  0.9745037  0.0102879  0.5009319

 Al 
  0.9960039  0.2478466  0.7371813

 Al 
  0.2517809  0.9906391  0.7454631

 Al 
  0.2576110  0.2381305  0.4869945

 Al 
  0.9896787  0.4962737  0.4902096

 Al 
  0.9788352  0.7593362  0.7331308

 Al 
  0.2828758  0.4813945  0.7627382

 Al 
  0.2394077  0.7429075  0.5057646

 Al 
  0.5148322  0.5183865  0.0060009

 Al 
  0.5076964  0.7569006  0.2594042

 Al 
  0.7440919  0.5022969  0.2488812

 Al 
  0.7524306  0.7489901  0.0103052

 Al 
  0.4972365  0.0011447  0.4944149

 Al 
  0.4932751  0.2488986  0.7545604

 Al 
  0.7396453  0.0087520  0.7698616

 Al 
  0.7357779  0.2520383  0.5137122

 Al 
  0.5161032  0.4989642  0.5015767

 Al 
  0.5188840  0.7554948  0.7649597

 Al 
  0.7543711  0.4986597  0.7335503

 Al 
  0.7452799  0.7554923  0.4993070

