32 
charge = 0 
 Al 
  0.9971227  0.9983503  0.9977662

 Al 
  0.9954804  0.2484964  0.2508824

 Al 
  0.2442528  0.9995310  0.2528848

 Al 
  0.2580429  0.2309267  0.0193815

 Al 
  0.4944273  0.0187961  0.0150376

 Al 
  0.5154398  0.2582682  0.2531644

 Al 
  0.7381689  0.0067163  0.2658185

 Al 
  0.7537535  0.2588548  0.9969086

 Al 
  0.0059118  0.4860329  0.9843980

 Al 
  0.0018687  0.7317645  0.2257933

 Al 
  0.2502450  0.4933976  0.2282090

 Al 
  0.2556284  0.7535258  0.9901626

 Al 
  0.9750210  0.0104834  0.5016323

 Al 
  0.9954953  0.2468405  0.7370984

 Al 
  0.2504591  0.9902431  0.7463752

 Al 
  0.2564291  0.2376937  0.4871046

 Al 
  0.9909101  0.4954705  0.4906799

 Al 
  0.9774665  0.7599797  0.7332768

 Al 
  0.2819489  0.4808215  0.7622531

 Al 
  0.2405401  0.7441711  0.5055022

 Al 
  0.5162702  0.5188493  0.0042609

 Al 
  0.5072558  0.7555727  0.2590379

 Al 
  0.7447663  0.5027672  0.2474679

 Al 
  0.7509257  0.7499381  0.0108596

 Al 
  0.4984345  0.0005433  0.4955213

 Al 
  0.4931984  0.2500050  0.7549725

 Al 
  0.7390278  0.0079105  0.7702317

 Al 
  0.7368521  0.2516460  0.5150351

 Al 
  0.5152666  0.5002104  0.5005173

 Al 
  0.5199817  0.7559675  0.7658396

 Al 
  0.7529615  0.5002091  0.7328833

 Al 
  0.7464470  0.7560146  0.4990409

