32 
charge = 0 
 Al 
  0.9980818  0.9983070  0.9972501

 Al 
  0.9958591  0.2482464  0.2518118

 Al 
  0.2439694  0.9990892  0.2531855

 Al 
  0.2580491  0.2317286  0.0196673

 Al 
  0.4945485  0.0185115  0.0146367

 Al 
  0.5166712  0.2580528  0.2519269

 Al 
  0.7377085  0.0069749  0.2660363

 Al 
  0.7543785  0.2599611  0.9979036

 Al 
  0.0041099  0.4856703  0.9849785

 Al 
  0.0022425  0.7331865  0.2253156

 Al 
  0.2496287  0.4929372  0.2273204

 Al 
  0.2546545  0.7536520  0.9908111

 Al 
  0.9746597  0.0103671  0.5011744

 Al 
  0.9958183  0.2475051  0.7371393

 Al 
  0.2513353  0.9904906  0.7457675

 Al 
  0.2572187  0.2379598  0.4870192

 Al 
  0.9900785  0.4959977  0.4903705

 Al 
  0.9783587  0.7595639  0.7331592

 Al 
  0.2825999  0.4811767  0.7625872

 Al 
  0.2397814  0.7433432  0.5056878

 Al 
  0.5153247  0.5185684  0.0054156

 Al 
  0.5075677  0.7564588  0.2592891

 Al 
  0.7443023  0.5024553  0.2483961

 Al 
  0.7519170  0.7492958  0.0104995

 Al 
  0.4976462  0.0009405  0.4947688

 Al 
  0.4932281  0.2492934  0.7546928

 Al 
  0.7394325  0.0084662  0.7699990

 Al 
  0.7361331  0.2519182  0.5141750

 Al 
  0.5158532  0.4993750  0.5012227

 Al 
  0.5192713  0.7556544  0.7652777

 Al 
  0.7538946  0.4991795  0.7332904

 Al 
  0.7456760  0.7556705  0.4992240

