32 
charge = 0 
 Al 
  0.9966462  0.9983800  0.9980236

 Al 
  0.9952836  0.2486164  0.2504171

 Al 
  0.2443864  0.9997154  0.2527486

 Al 
  0.2580083  0.2305690  0.0191983

 Al 
  0.4944062  0.0188914  0.0152233

 Al 
  0.5148161  0.2583721  0.2537746

 Al 
  0.7384201  0.0065863  0.2656638

 Al 
  0.7534367  0.2583003  0.9964247

 Al 
  0.0067955  0.4862272  0.9841097

 Al 
  0.0016905  0.7310913  0.2260643

 Al 
  0.2505606  0.4936377  0.2286817

 Al 
  0.2561049  0.7534602  0.9898545

 Al 
  0.9752252  0.0105218  0.5018464

 Al 
  0.9953579  0.2465175  0.7370996

 Al 
  0.2500285  0.9901441  0.7466784

 Al 
  0.2560306  0.2375959  0.4871652

 Al 
  0.9913433  0.4952181  0.4908297

 Al 
  0.9770494  0.7601691  0.7333684

 Al 
  0.2815752  0.4806841  0.7620699

 Al 
  0.2409250  0.7445659  0.5053945

 Al 
  0.5167232  0.5189471  0.0036904

 Al 
  0.5070751  0.7551272  0.2589018

 Al 
  0.7450200  0.5029182  0.2470212

 Al 
  0.7504492  0.7502772  0.0110254

 Al 
  0.4988144  0.0003490  0.4959210

 Al 
  0.4932144  0.2503255  0.7551198

 Al 
  0.7388335  0.0076407  0.7703270

 Al 
  0.7372172  0.2514950  0.5154324

 Al 
  0.5149300  0.5006349  0.5001646

 Al 
  0.5203047  0.7561235  0.7660858

 Al 
  0.7525036  0.5007215  0.7327335

 Al 
  0.7468232  0.7561804  0.4989406

