32 
charge = 0 
 Al 
  0.0031570  0.9986164  0.9944433

 Al 
  0.9975001  0.2468071  0.2565999

 Al 
  0.2421724  0.9954161  0.2552423

 Al 
  0.2569180  0.2374474  0.0193790

 Al 
  0.4967489  0.0150092  0.0118311

 Al 
  0.5223912  0.2568598  0.2451240

 Al 
  0.7363658  0.0082236  0.2651007

 Al 
  0.7574105  0.2653099  0.0035035

 Al 
  0.9942144  0.4844834  0.9882283

 Al 
  0.0044639  0.7420487  0.2243639

 Al 
  0.2466103  0.4911118  0.2241609

 Al 
  0.2493292  0.7541854  0.9946946

 Al 
  0.9738454  0.0088906  0.4983726

 Al 
  0.9985384  0.2511806  0.7381714

 Al 
  0.2561061  0.9927627  0.7426736

 Al 
  0.2611319  0.2409683  0.4872704

 Al 
  0.9865551  0.4992166  0.4884412

 Al 
  0.9841493  0.7566111  0.7338424

 Al 
  0.2838832  0.4846728  0.7636478

 Al 
  0.2361628  0.7381330  0.5059044

 Al 
  0.5097767  0.5155005  0.0115997

 Al 
  0.5080491  0.7607656  0.2600267

 Al 
  0.7429385  0.5009195  0.2539354

 Al 
  0.7575863  0.7465942  0.0079130

 Al 
  0.4930016  0.0031397  0.4919002

 Al 
  0.4946871  0.2441513  0.7536149

 Al 
  0.7419583  0.0115700  0.7679632

 Al 
  0.7328783  0.2525085  0.5084649

 Al 
  0.5168568  0.4954854  0.5048785

 Al 
  0.5143718  0.7539392  0.7610168

 Al 
  0.7589129  0.4938010  0.7377518

 Al 
  0.7413284  0.7536706  0.4999381

