32 
charge = 0 
 Al 
  0.0062621  0.9994579  0.9925041

 Al 
  0.9982278  0.2458901  0.2594154

 Al 
  0.2409052  0.9923184  0.2568004

 Al 
  0.2554787  0.2418482  0.0177244

 Al 
  0.4991646  0.0112631  0.0095119

 Al 
  0.5248478  0.2560851  0.2407059

 Al 
  0.7365625  0.0087248  0.2627976

 Al 
  0.7589810  0.2678791  0.0071259

 Al 
  0.9880315  0.4845515  0.9906861

 Al 
  0.0058425  0.7484939  0.2252772

 Al 
  0.2447589  0.4905859  0.2236894

 Al 
  0.2460707  0.7544243  0.9972836

 Al 
  0.9742327  0.0072459  0.4964853

 Al 
  0.0011373  0.2534689  0.7393136

 Al 
  0.2590936  0.9948456  0.7409027

 Al 
  0.2633285  0.2442688  0.4878595

 Al 
  0.9850366  0.5015729  0.4869425

 Al 
  0.9885612  0.7541582  0.7352681

 Al 
  0.2830219  0.4880266  0.7637741

 Al 
  0.2343077  0.7341926  0.5053537

 Al 
  0.5060628  0.5125526  0.0154101

 Al 
  0.5073981  0.7629474  0.2598671

 Al 
  0.7430721  0.5003329  0.2577768

 Al 
  0.7611368  0.7453517  0.0056173

 Al 
  0.4898718  0.0044911  0.4909782

 Al 
  0.4965571  0.2401317  0.7533501

 Al 
  0.7439199  0.0134931  0.7660834

 Al 
  0.7316036  0.2521026  0.5041458

 Al 
  0.5156292  0.4935758  0.5071779

 Al 
  0.5105997  0.7527808  0.7575095

 Al 
  0.7618162  0.4906081  0.7422986

 Al 
  0.7384808  0.7523353  0.5003614

