32 
charge = 0 
 Al 
  0.0105750  0.0023588  0.9889968

 Al 
  0.9989543  0.2447589  0.2630847

 Al 
  0.2392072  0.9872878  0.2593312

 Al 
  0.2525135  0.2489963  0.0125897

 Al 
  0.5040481  0.0029974  0.0050703

 Al 
  0.5251535  0.2547324  0.2340788

 Al 
  0.7389981  0.0083078  0.2563400

 Al 
  0.7604413  0.2691661  0.0123447

 Al 
  0.9801359  0.4868150  0.9960039

 Al 
  0.0070294  0.7592805  0.2298933

 Al 
  0.2415784  0.4911688  0.2263291

 Al 
  0.2419472  0.7544862  0.0009257

 Al 
  0.9764517  0.0032548  0.4938926

 Al 
  0.0069576  0.2565962  0.7415239

 Al 
  0.2630142  0.9987748  0.7387382

 Al 
  0.2658977  0.2519727  0.4892357

 Al 
  0.9838201  0.5055567  0.4844488

 Al 
  0.9965423  0.7494035  0.7390525

 Al 
  0.2789070  0.4946178  0.7631491

 Al 
  0.2325974  0.7273093  0.5031607

 Al 
  0.5005049  0.5070120  0.0205225

 Al 
  0.5047151  0.7648817  0.2581308

 Al 
  0.7449507  0.5007413  0.2637023

 Al 
  0.7655190  0.7442206  0.0007896

 Al 
  0.4854512  0.0060975  0.4908903

 Al 
  0.5007524  0.2339278  0.7537907

 Al 
  0.7479296  0.0158099  0.7621591

 Al 
  0.7316828  0.2501262  0.4969989

 Al 
  0.5104426  0.4917009  0.5109005

 Al 
  0.5041966  0.7508403  0.7511683

 Al 
  0.7647753  0.4863522  0.7513613

 Al 
  0.7343077  0.7504480  0.5013947

