32 
charge = 0 
 Al 
  0.0096443  0.0014232  0.9899089

 Al 
  0.9988157  0.2449693  0.2623348

 Al 
  0.2395277  0.9884201  0.2587347

 Al 
  0.2532932  0.2473145  0.0141664

 Al 
  0.5027697  0.0052893  0.0062336

 Al 
  0.5256683  0.2550963  0.2355737

 Al 
  0.7381095  0.0086221  0.2582644

 Al 
  0.7602532  0.2693307  0.0112037

 Al 
  0.9816395  0.4859252  0.9944755

 Al 
  0.0069613  0.7566593  0.2283241

 Al 
  0.2424014  0.4908160  0.2251869

 Al 
  0.2427466  0.7545307  0.0001485

 Al 
  0.9756918  0.0044218  0.4944248

 Al 
  0.0053054  0.2559279  0.7409646

 Al 
  0.2622444  0.9977736  0.7391540

 Al 
  0.2654435  0.2497859  0.4888545

 Al 
  0.9839550  0.5045914  0.4850144

 Al 
  0.9944978  0.7506584  0.7379437

 Al 
  0.2802757  0.4929063  0.7633979

 Al 
  0.2328028  0.7290109  0.5038773

 Al 
  0.5017623  0.5084043  0.0194730

 Al 
  0.5055851  0.7646602  0.2587706

 Al 
  0.7443035  0.5004282  0.2623521

 Al 
  0.7647035  0.7443592  0.0021138

 Al 
  0.4863781  0.0058165  0.4907480

 Al 
  0.4995978  0.2352891  0.7535617

 Al 
  0.7468083  0.0154015  0.7632345

 Al 
  0.7313450  0.2507710  0.4987006

 Al 
  0.5121095  0.4919930  0.5099921

 Al 
  0.5057571  0.7513143  0.7527697

 Al 
  0.7643669  0.4872457  0.7490273

 Al 
  0.7352322  0.7508440  0.5010717

