32 
charge = 0 
 Al 
  0.0102854  0.0020370  0.9892963

 Al 
  0.9989109  0.2448208  0.2628558

 Al 
  0.2393000  0.9876405  0.2591406

 Al 
  0.2527684  0.2484605  0.0131256

 Al 
  0.5036298  0.0037597  0.0054527

 Al 
  0.5253737  0.2548550  0.2345490

 Al 
  0.7386862  0.0084290  0.2569910

 Al 
  0.7603943  0.2692639  0.0119895

 Al 
  0.9805789  0.4864970  0.9954878

 Al 
  0.0070318  0.7584365  0.2293488

 Al 
  0.2418494  0.4910363  0.2259158

 Al 
  0.2421860  0.7545060  0.0006844

 Al 
  0.9761868  0.0036483  0.4940547

 Al 
  0.0064031  0.2563883  0.7413433

 Al 
  0.2627853  0.9984493  0.7388619

 Al 
  0.2657678  0.2512413  0.4891095

 Al 
  0.9838498  0.5052473  0.4846245

 Al 
  0.9958740  0.7498168  0.7386788

 Al 
  0.2793810  0.4940585  0.7632370

 Al 
  0.2326444  0.7278588  0.5034082

 Al 
  0.5009022  0.5074613  0.0202032

 Al 
  0.5050146  0.7648334  0.2583560

 Al 
  0.7447292  0.5006213  0.2632766

 Al 
  0.7652802  0.7442515  0.0012301

 Al 
  0.4857346  0.0060183  0.4908321

 Al 
  0.5003688  0.2343485  0.7537065

 Al 
  0.7475533  0.0156948  0.7625167

 Al 
  0.7315455  0.2503478  0.4975422

 Al 
  0.5110131  0.4917826  0.5106071

 Al 
  0.5046990  0.7509925  0.7516880

 Al 
  0.7646738  0.4866281  0.7506027

 Al 
  0.7345973  0.7505693  0.5012834

