32 
charge = 0 
 Al 
  0.0115328  0.0037461  0.9878409

 Al 
  0.9991127  0.2445894  0.2638050

 Al 
  0.2389857  0.9861467  0.2600045

 Al 
  0.2515346  0.2509071  0.0103398

 Al 
  0.5056445  0.9999468  0.0035865

 Al 
  0.5237921  0.2542176  0.2324811

 Al 
  0.7403965  0.0076506  0.2536607

 Al 
  0.7604747  0.2683592  0.0135290

 Al 
  0.9789354  0.4882964  0.9981536

 Al 
  0.0067682  0.7623657  0.2322756

 Al 
  0.2405203  0.4918383  0.2282857

 Al 
  0.2412517  0.7543488  0.0017153

 Al 
  0.9776224  0.0016237  0.4934050

 Al 
  0.0092149  0.2572892  0.7421910

 Al 
  0.2636615  0.9999950  0.7383743

 Al 
  0.2661985  0.2549168  0.4897456

 Al 
  0.9838387  0.5066729  0.4838919

 Al 
  0.9991015  0.7477959  0.7405846

 Al 
  0.2768341  0.4967403  0.7627667

 Al 
  0.2326320  0.7252995  0.5020902

 Al 
  0.4991312  0.5053537  0.0215076

 Al 
  0.5034355  0.7648322  0.2571160

 Al 
  0.7458777  0.5013749  0.2651577

 Al 
  0.7661601  0.7442404  0.9990434

 Al 
  0.4845701  0.0062782  0.4912046

 Al 
  0.5022623  0.2325714  0.7542015

 Al 
  0.7494790  0.0160685  0.7607284

 Al 
  0.7324563  0.2491943  0.4950485

 Al 
  0.5080466  0.4915289  0.5119833

 Al 
  0.5023501  0.7502884  0.7492067

 Al 
  0.7648433  0.4854500  0.7541879

 Al 
  0.7333313  0.7500693  0.5018873

