32 
charge = 0 
 Al 
  0.0120638  0.0048871  0.9870093

 Al 
  0.9992315  0.2445349  0.2641565

 Al 
  0.2389845  0.9855861  0.2604265

 Al 
  0.2508415  0.2521212  0.0085441

 Al 
  0.5067620  0.9976437  0.0025085

 Al 
  0.5222811  0.2537845  0.2315727

 Al 
  0.7415982  0.0069786  0.2515606

 Al 
  0.7603621  0.2673321  0.0141849

 Al 
  0.9786174  0.4896230  0.9998800

 Al 
  0.0062868  0.7644040  0.2342656

 Al 
  0.2397418  0.4924781  0.2300678

 Al 
  0.2409819  0.7541842  0.0021435

 Al 
  0.9786273  0.0003354  0.4932033

 Al 
  0.0109623  0.2576877  0.7426291

 Al 
  0.2638632  0.0008316  0.7382258

 Al 
  0.2661935  0.2571457  0.4901366

 Al 
  0.9839872  0.5073845  0.4836431

 Al 
  0.0009257  0.7466289  0.7417764

 Al 
  0.2750817  0.4982204  0.7624573

 Al 
  0.2328882  0.7239840  0.5012017

 Al 
  0.4983045  0.5042585  0.0219445

 Al 
  0.5023910  0.7645463  0.2562423

 Al 
  0.7465819  0.5020011  0.2659980

 Al 
  0.7663247  0.7444112  0.9977377

 Al 
  0.4841654  0.0062769  0.4915066

 Al 
  0.5033785  0.2318982  0.7545852

 Al 
  0.7507141  0.0160438  0.7596431

 Al 
  0.7332620  0.2484530  0.4937986

 Al 
  0.5061507  0.4915425  0.5127061

 Al 
  0.5011175  0.7499319  0.7478454

 Al 
  0.7645500  0.4849636  0.7560900

 Al 
  0.7327781  0.7498948  0.5023093

