32 
charge = 0 
 Al 
  0.0126293  0.0069749  0.9856826

 Al 
  0.9994740  0.2445597  0.2644164

 Al 
  0.2393235  0.9852557  0.2609784

 Al 
  0.2497463  0.2538129  0.0053265

 Al 
  0.5084909  0.9937144  0.0007302

 Al 
  0.5188394  0.2529083  0.2306049

 Al 
  0.7438852  0.0055096  0.2478627

 Al 
  0.7599710  0.2648557  0.0148780

 Al 
  0.9791396  0.4922343  0.0030395

 Al 
  0.0048908  0.7673383  0.2379523

 Al 
  0.2384535  0.4938010  0.2336270

 Al 
  0.2409596  0.7537931  0.0025989

 Al 
  0.9805839  0.9980422  0.4931934

 Al 
  0.0140129  0.2581753  0.7432318

 Al 
  0.2636528  0.0020977  0.7381813

 Al 
  0.2657257  0.2609042  0.4908346

 Al 
  0.9844760  0.5083325  0.4836085

 Al 
  0.0038525  0.7447230  0.7438666

 Al 
  0.2717254  0.5005062  0.7619264

 Al 
  0.2337657  0.7221561  0.4995446

 Al 
  0.4972613  0.5027041  0.0221152

 Al 
  0.5004814  0.7635959  0.2545839

 Al 
  0.7477018  0.5033142  0.2669311

 Al 
  0.7660314  0.7450077  0.9955448

 Al 
  0.4839624  0.0060294  0.4920821

 Al 
  0.5052312  0.2314180  0.7553611

 Al 
  0.7529825  0.0155710  0.7577570

 Al 
  0.7350069  0.2471462  0.4920586

 Al 
  0.5028501  0.4918073  0.5137444

 Al 
  0.4992884  0.7494394  0.7457428

 Al 
  0.7634276  0.4844686  0.7588647

 Al 
  0.7321741  0.7498020  0.5031310

