32 
charge = 0 
 Al 
  0.0128249  0.0087768  0.9846889

 Al 
  0.9997376  0.2446636  0.2643545

 Al 
  0.2399225  0.9855675  0.2612767

 Al 
  0.2489258  0.2549230  0.0025667

 Al 
  0.5097458  0.9904683  0.9992934

 Al 
  0.5152827  0.2520222  0.2303413

 Al 
  0.7459544  0.0040246  0.2447305

 Al 
  0.7595243  0.2622482  0.0150970

 Al 
  0.9804564  0.4946463  0.0058401

 Al 
  0.0032152  0.7692849  0.2411861

 Al 
  0.2374387  0.4950745  0.2369685

 Al 
  0.2412838  0.7533823  0.0027734

 Al 
  0.9824365  0.9960918  0.4935016

 Al 
  0.0165635  0.2584501  0.7435832

 Al 
  0.2629870  0.0030011  0.7382951

 Al 
  0.2649114  0.2639090  0.4914608

 Al 
  0.9850799  0.5088634  0.4839773

 Al 
  0.0061185  0.7432268  0.7456388

 Al 
  0.2686068  0.5021831  0.7615143

 Al 
  0.2348844  0.7210608  0.4980657

 Al 
  0.4967019  0.5017078  0.0217427

 Al 
  0.4988132  0.7624078  0.2531026

 Al 
  0.7484753  0.5045864  0.2672504

 Al 
  0.7653124  0.7457663  0.9937726

 Al 
  0.4842174  0.0056309  0.4925647

 Al 
  0.5067150  0.2316061  0.7560938

 Al 
  0.7550282  0.0147951  0.7561470

 Al 
  0.7367346  0.2460497  0.4909349

 Al 
  0.5001547  0.4922170  0.5144052

 Al 
  0.4979865  0.7491349  0.7441983

 Al 
  0.7619895  0.4843275  0.7607433

 Al 
  0.7319712  0.7499010  0.5038958

