32 
charge = 0 
 Al 
  0.0127543  0.0078647  0.9851765

 Al 
  0.9995966  0.2446042  0.2644139

 Al 
  0.2395859  0.9853460  0.2611443

 Al 
  0.2493292  0.2543921  0.0039639

 Al 
  0.5091344  0.9921006  0.0000136

 Al 
  0.5171452  0.2524875  0.2304143

 Al 
  0.7448963  0.0047993  0.2463121

 Al 
  0.7597594  0.2636144  0.0150240

 Al 
  0.9797027  0.4934087  0.0044107

 Al 
  0.0041137  0.7683580  0.2395438

 Al 
  0.2379424  0.4944161  0.2352495

 Al 
  0.2410871  0.7535976  0.0027041

 Al 
  0.9814774  0.9970769  0.4933110

 Al 
  0.0152802  0.2583226  0.7434236

 Al 
  0.2633756  0.0025618  0.7382234

 Al 
  0.2653693  0.2624115  0.4911391

 Al 
  0.9847545  0.5086246  0.4837459

 Al 
  0.0049948  0.7439706  0.7447428

 Al 
  0.2702143  0.5013626  0.7617172

 Al 
  0.2342792  0.7215633  0.4988206

 Al 
  0.4969519  0.5021781  0.0219853

 Al 
  0.4996621  0.7630489  0.2538562

 Al 
  0.7481065  0.5039280  0.2671390

 Al 
  0.7657245  0.7453567  0.9946599

 Al 
  0.4840441  0.0058512  0.4923246

 Al 
  0.5059737  0.2314489  0.7557163

 Al 
  0.7539788  0.0152270  0.7569638

 Al 
  0.7358373  0.2466017  0.4914682

 Al 
  0.5015012  0.4919917  0.5140958

 Al 
  0.4986214  0.7492785  0.7449532

 Al 
  0.7627655  0.4843708  0.7598423

 Al 
  0.7320417  0.7498329  0.5035023

