32 
charge = 0 
 Al 
  0.0126528  0.0123657  0.9830974

 Al 
  0.0005037  0.2450139  0.2635860

 Al 
  0.2419187  0.9877135  0.2613967

 Al 
  0.2475546  0.2565962  0.9969680

 Al 
  0.5117271  0.9840565  0.9964272

 Al 
  0.5066049  0.2497352  0.2312089

 Al 
  0.7503973  0.0004628  0.2384115

 Al 
  0.7584785  0.2559873  0.0147295

 Al 
  0.9850304  0.4998911  0.0118348

 Al 
  0.9986424  0.7719073  0.2478306

 Al 
  0.2356505  0.4979927  0.2443481

 Al 
  0.2426241  0.7524281  0.0027981

 Al 
  0.9868150  0.9922095  0.4950040

 Al 
  0.0215002  0.2588213  0.7438394

 Al 
  0.2604500  0.0044255  0.7388050

 Al 
  0.2621454  0.2693938  0.4929137

 Al 
  0.9867445  0.5092409  0.4858769

 Al 
  0.0102681  0.7404918  0.7492476

 Al 
  0.2614833  0.5050047  0.7608423

 Al 
  0.2380773  0.7201351  0.4949173

 Al 
  0.4962428  0.5004232  0.0197069

 Al 
  0.4953171  0.7590367  0.2500359

 Al 
  0.7494047  0.5074761  0.2667566

 Al 
  0.7628038  0.7478627  0.9903619

 Al 
  0.4857445  0.0044503  0.4934013

 Al 
  0.5095664  0.2333721  0.7577323

 Al 
  0.7595664  0.0123051  0.7527103

 Al 
  0.7407566  0.2438728  0.4893632

 Al 
  0.4952032  0.4934422  0.5151131

 Al 
  0.4957824  0.7487525  0.7416440

 Al 
  0.7580305  0.4846480  0.7635105

 Al 
  0.7323128  0.7504864  0.5055814

