32 
charge = 0 
 Al 
  0.0125910  0.0127741  0.9829551

 Al 
  0.0006188  0.2450646  0.2634387

 Al 
  0.2422219  0.9881021  0.2613596

 Al 
  0.2474234  0.2567559  0.9963133

 Al 
  0.5119066  0.9833115  0.9960819

 Al 
  0.5054490  0.2494146  0.2314378

 Al 
  0.7509393  0.9999963  0.2376689

 Al 
  0.7583486  0.2551780  0.0146193

 Al 
  0.9857235  0.5005359  0.0125724

 Al 
  0.9980063  0.7720979  0.2486127

 Al 
  0.2354723  0.4983664  0.2452601

 Al 
  0.2428333  0.7523105  0.0027858

 Al 
  0.9874016  0.9917628  0.4952676

 Al 
  0.0220472  0.2588585  0.7438246

 Al 
  0.2600490  0.0045567  0.7388855

 Al 
  0.2617135  0.2699767  0.4931093

 Al 
  0.9869747  0.5092223  0.4862148

 Al 
  0.0107235  0.7401960  0.7496770

 Al 
  0.2605626  0.5052943  0.7607816

 Al 
  0.2385365  0.7201587  0.4945362

 Al 
  0.4962390  0.5003292  0.0193505

 Al 
  0.4948913  0.7585491  0.2496745

 Al 
  0.7494480  0.5078387  0.2665994

 Al 
  0.7624214  0.7481523  0.9899708

 Al 
  0.4860131  0.0042832  0.4934818

 Al 
  0.5098943  0.2336964  0.7579377

 Al 
  0.7601418  0.0119313  0.7522771

 Al 
  0.7412764  0.2436191  0.4892295

 Al 
  0.4946797  0.4936167  0.5151329

 Al 
  0.4955473  0.7487253  0.7413952

 Al 
  0.7574798  0.4847371  0.7637580

 Al 
  0.7324217  0.7505841  0.5057893

