32 
charge = 0 
 Al 
  0.0128199  0.0106158  0.9838053

 Al 
  0.0000817  0.2448233  0.2640686

 Al 
  0.2408061  0.9864041  0.2614252

 Al 
  0.2481795  0.2558475  0.9997265

 Al 
  0.5108448  0.9871987  0.9978466

 Al 
  0.5111282  0.2509529  0.2305492

 Al 
  0.7481684  0.0023093  0.2415264

 Al 
  0.7590107  0.2592186  0.0150376

 Al 
  0.9824786  0.4972514  0.0088201

 Al 
  0.0010853  0.7708294  0.2445461

 Al 
  0.2364809  0.4964977  0.2406193

 Al 
  0.2418630  0.7529120  0.0028229

 Al 
  0.9845367  0.9941080  0.4941092

 Al 
  0.0191154  0.2586580  0.7437924

 Al 
  0.2618942  0.0037894  0.7385142

 Al 
  0.2637023  0.2667962  0.4921576

 Al 
  0.9858559  0.5091703  0.4847371

 Al 
  0.0082842  0.7417937  0.7474593

 Al 
  0.2651428  0.5036978  0.7611430

 Al 
  0.2363484  0.7203616  0.4964940

 Al 
  0.4963690  0.5009455  0.0209235

 Al 
  0.4970645  0.7608633  0.2515531

 Al 
  0.7490632  0.5060047  0.2671848

 Al 
  0.7642060  0.7467427  0.9920202

 Al 
  0.4848262  0.0050864  0.4930189

 Al 
  0.5081791  0.2322806  0.7568994

 Al 
  0.7572534  0.0136825  0.7544478

 Al 
  0.7386887  0.2449408  0.4900364

 Al 
  0.4975459  0.4927776  0.5148767

 Al 
  0.4968145  0.7489072  0.7428110

 Al 
  0.7601455  0.4843943  0.7623001

 Al 
  0.7320182  0.7501398  0.5047300

