32 
charge = 0 
 Al 
  0.0128385  0.0101579  0.9840119

 Al 
  0.9999889  0.2447800  0.2641602

 Al 
  0.2405611  0.9861480  0.2614029

 Al 
  0.2483565  0.2556334  0.0004356

 Al 
  0.5105873  0.9880105  0.9982080

 Al 
  0.5122123  0.2512363  0.2304527

 Al 
  0.7476078  0.0027548  0.2423271

 Al 
  0.7591419  0.2600045  0.0150772

 Al 
  0.9819143  0.4965893  0.0080652

 Al 
  0.0016546  0.7704854  0.2437045

 Al 
  0.2367111  0.4961314  0.2396886

 Al 
  0.2416972  0.7530333  0.0028192

 Al 
  0.9839909  0.9946005  0.4939298

 Al 
  0.0184855  0.2586110  0.7437553

 Al 
  0.2622048  0.0036050  0.7384511

 Al 
  0.2640401  0.2660945  0.4919769

 Al 
  0.9856480  0.5091159  0.4845094

 Al 
  0.0077570  0.7421427  0.7470039

 Al 
  0.2660351  0.5033365  0.7612296

 Al 
  0.2359537  0.7204953  0.4968912

 Al 
  0.4964309  0.5011126  0.0211685

 Al 
  0.4975051  0.7612791  0.2519417

 Al 
  0.7489369  0.5056408  0.2672368

 Al 
  0.7645154  0.7464816  0.9924533

 Al 
  0.4846418  0.0052337  0.4929112

 Al 
  0.5078177  0.2320690  0.7566940

 Al 
  0.7566841  0.0139894  0.7548785

 Al 
  0.7381850  0.2452168  0.4902393

 Al 
  0.4981808  0.4926254  0.5147790

 Al 
  0.4970942  0.7489567  0.7431390

 Al 
  0.7606381  0.4843584  0.7619425

 Al 
  0.7319836  0.7500681  0.5045171

