32 
charge = 0 
 Al 
  0.0123756  0.0138991  0.9826283

 Al 
  0.0009839  0.2452156  0.2629437

 Al 
  0.2431687  0.9893830  0.2611740

 Al 
  0.2470992  0.2571729  0.9944693

 Al 
  0.5123373  0.9812175  0.9950807

 Al 
  0.5019950  0.2484332  0.2322496

 Al 
  0.7524925  0.9986127  0.2355663

 Al 
  0.7579711  0.2528105  0.0142221

 Al 
  0.9878756  0.5023984  0.0147047

 Al 
  0.9960918  0.7724741  0.2508230

 Al 
  0.2350205  0.4994666  0.2478850

 Al 
  0.2434842  0.7519826  0.0027486

 Al 
  0.9891763  0.9905215  0.4961400

 Al 
  0.0235273  0.2589600  0.7437218

 Al 
  0.2587842  0.0048772  0.7391392

 Al 
  0.2603423  0.2715299  0.4937070

 Al 
  0.9876665  0.5090899  0.4873360

 Al 
  0.0119747  0.7394003  0.7509084

 Al 
  0.2578375  0.5060678  0.7606331

 Al 
  0.2399473  0.7204309  0.4934434

 Al 
  0.4962873  0.5001287  0.0181810

 Al 
  0.4936662  0.7570430  0.2486622

 Al 
  0.7494753  0.5088919  0.2660252

 Al 
  0.7612334  0.7490149  0.9888669

 Al 
  0.4868942  0.0037808  0.4936835

 Al 
  0.5108151  0.2347619  0.7585355

 Al 
  0.7618323  0.0107643  0.7510012

 Al 
  0.7428073  0.2429051  0.4889090

 Al 
  0.4932924  0.4941488  0.5150958

 Al 
  0.4949000  0.7486659  0.7407566

 Al 
  0.7558190  0.4850589  0.7643693

 Al 
  0.7328288  0.7508948  0.5063895

