32 
charge = 0 
 Al 
  0.0116925  0.0160252  0.9825021

 Al 
  0.0020593  0.2455992  0.2613150

 Al 
  0.2457576  0.9933617  0.2601480

 Al 
  0.2467675  0.2578882  0.9906366

 Al 
  0.5126714  0.9768254  0.9926600

 Al 
  0.4932417  0.2457960  0.2351158

 Al 
  0.7558908  0.9952391  0.2310863

 Al 
  0.7570826  0.2472786  0.0127815

 Al 
  0.9936822  0.5066766  0.0195782

 Al 
  0.9913333  0.7720930  0.2554960

 Al 
  0.2344872  0.5020989  0.2537251

 Al 
  0.2452539  0.7513403  0.0027115

 Al 
  0.9939236  0.9880315  0.4989283

 Al 
  0.0260495  0.2592223  0.7430597

 Al 
  0.2552893  0.0051854  0.7398297

 Al 
  0.2563685  0.2741250  0.4953616

 Al 
  0.9893520  0.5082768  0.4909670

 Al 
  0.0143508  0.7380142  0.7536805

 Al 
  0.2511732  0.5074786  0.7604599

 Al 
  0.2437107  0.7226338  0.4911007

 Al 
  0.4967007  0.5000619  0.0145178

 Al 
  0.4908779  0.7529033  0.2466091

 Al 
  0.7488850  0.5112915  0.2639312

 Al 
  0.7580256  0.7510358  0.9864400

 Al 
  0.4896045  0.0025024  0.4939718

 Al 
  0.5127568  0.2379647  0.7598894

 Al 
  0.7658693  0.0075132  0.7478306

 Al 
  0.7465509  0.2413878  0.4885550

 Al 
  0.4910363  0.4955138  0.5143458

 Al 
  0.4935164  0.7486523  0.7398569

 Al 
  0.7516286  0.4862445  0.7651688

 Al 
  0.7344055  0.7517388  0.5077372

