32 
charge = 0 
 Al 
  0.0119549  0.0153829  0.9824229

 Al 
  0.0016398  0.2454606  0.2619722

 Al 
  0.2447923  0.9917950  0.2606220

 Al 
  0.2468009  0.2576791  0.9918828

 Al 
  0.5126825  0.9782635  0.9935313

 Al 
  0.4964284  0.2467786  0.2339439

 Al 
  0.7547560  0.9964395  0.2325665

 Al 
  0.7573981  0.2492005  0.0133793

 Al 
  0.9915276  0.5051940  0.0179001

 Al 
  0.9930276  0.7724642  0.2539552

 Al 
  0.2345713  0.5011707  0.2517512

 Al 
  0.2445931  0.7515358  0.0027090

 Al 
  0.9921390  0.9888211  0.4978145

 Al 
  0.0253626  0.2591221  0.7433667

 Al 
  0.2565950  0.0051606  0.7395723

 Al 
  0.2578956  0.2734172  0.4947292

 Al 
  0.9887580  0.5086468  0.4895067

 Al 
  0.0136268  0.7384040  0.7527264

 Al 
  0.2535518  0.5070504  0.7604921

 Al 
  0.2423147  0.7215546  0.4918692

 Al 
  0.4965101  0.5000198  0.0159707

 Al 
  0.4918358  0.7544651  0.2472625

 Al 
  0.7492080  0.5104673  0.2647963

 Al 
  0.7592137  0.7503465  0.9872704

 Al 
  0.4885402  0.0029664  0.4938988

 Al 
  0.5121182  0.2367271  0.7594290

 Al 
  0.7644473  0.0087446  0.7489790

 Al 
  0.7452106  0.2418915  0.4886119

 Al 
  0.4916390  0.4950188  0.5147307

 Al 
  0.4939867  0.7486374  0.7400624

 Al 
  0.7531385  0.4857458  0.7649943

 Al 
  0.7337384  0.7514281  0.5072781

