32 
charge = 0 
 Al 
  0.0120415  0.0151280  0.9824291

 Al 
  0.0015036  0.2454124  0.2621789

 Al 
  0.2444681  0.9912913  0.2607569

 Al 
  0.2468368  0.2575949  0.9923482

 Al 
  0.5126504  0.9787981  0.9938295

 Al 
  0.4975162  0.2471078  0.2335775

 Al 
  0.7543401  0.9968578  0.2331135

 Al 
  0.7575071  0.2498824  0.0135637

 Al 
  0.9908012  0.5046681  0.0173011

 Al 
  0.9936191  0.7725274  0.2533860

 Al 
  0.2346295  0.5008453  0.2510358

 Al 
  0.2443716  0.7516138  0.0027127

 Al 
  0.9915474  0.9891218  0.4974618

 Al 
  0.0250631  0.2590899  0.7434545

 Al 
  0.2570343  0.0051285  0.7394857

 Al 
  0.2583969  0.2731115  0.4945213

 Al 
  0.9885488  0.5087545  0.4890463

 Al 
  0.0133409  0.7385686  0.7523860

 Al 
  0.2543773  0.5068833  0.7605106

 Al 
  0.2418432  0.7212626  0.4921563

 Al 
  0.4964544  0.5000210  0.0164348

 Al 
  0.4921786  0.7549837  0.2475113

 Al 
  0.7492896  0.5101728  0.2650648

 Al 
  0.7596159  0.7500965  0.9875662

 Al 
  0.4881974  0.0031261  0.4938666

 Al 
  0.5118818  0.2363225  0.7592632

 Al 
  0.7639486  0.0091518  0.7493726

 Al 
  0.7447465  0.2420759  0.4886491

 Al 
  0.4919026  0.4948480  0.5148322

 Al 
  0.4941538  0.7486362  0.7401651

 Al 
  0.7536595  0.4855948  0.7649052

 Al 
  0.7335355  0.7513217  0.5071123

