32 
charge = 0 
 Al 
  0.0112754  0.0166898  0.9829650

 Al 
  0.0028192  0.2458220  0.2600824

 Al 
  0.2473219  0.9961524  0.2591134

 Al 
  0.2469383  0.2581097  0.9890278

 Al 
  0.5122890  0.9749542  0.9912541

 Al 
  0.4881231  0.2441822  0.2372878

 Al 
  0.7574155  0.9934013  0.2291137

 Al 
  0.7565752  0.2444619  0.0116269

 Al 
  0.9971883  0.5088845  0.0220100

 Al 
  0.9887889  0.7708789  0.2575714

 Al 
  0.2346493  0.5034998  0.2564762

 Al 
  0.2463467  0.7511361  0.0027697

 Al 
  0.9969927  0.9870737  0.5009504

 Al 
  0.0264851  0.2593993  0.7424249

 Al 
  0.2531719  0.0049899  0.7402542

 Al 
  0.2537263  0.2746337  0.4964866

 Al 
  0.9902369  0.5075219  0.4936785

 Al 
  0.0151243  0.7377110  0.7550975

 Al 
  0.2475038  0.5079736  0.7604599

 Al 
  0.2460014  0.7251535  0.4901292

 Al 
  0.4970756  0.5002686  0.0118707

 Al 
  0.4895018  0.7502500  0.2458195

 Al 
  0.7481065  0.5124783  0.2622927

 Al 
  0.7561086  0.7519529  0.9852049

 Al 
  0.4915029  0.0017561  0.4940399

 Al 
  0.5136058  0.2400772  0.7605156

 Al 
  0.7680152  0.0054242  0.7459841

 Al 
  0.7486634  0.2406997  0.4886330

 Al 
  0.4906304  0.4962972  0.5134548

 Al 
  0.4928110  0.7487142  0.7398260

 Al 
  0.7492872  0.4872345  0.7651849

 Al 
  0.7357161  0.7522189  0.5083907

