32 
charge = 0 
 Al 
  0.0113559  0.0165970  0.9828387

 Al 
  0.0026595  0.2457774  0.2603435

 Al 
  0.2470138  0.9955757  0.2593461

 Al 
  0.2468813  0.2580776  0.9893062

 Al 
  0.5124029  0.9752772  0.9915338

 Al 
  0.4891342  0.2445027  0.2368311

 Al 
  0.7571469  0.9937540  0.2294614

 Al 
  0.7566779  0.2449903  0.0118756

 Al 
  0.9964940  0.5084649  0.0215571

 Al 
  0.9892691  0.7711821  0.2572001

 Al 
  0.2345862  0.5032325  0.2559750

 Al 
  0.2461277  0.7511645  0.0027523

 Al 
  0.9963628  0.9872308  0.5005284

 Al 
  0.0264702  0.2593634  0.7425622

 Al 
  0.2535902  0.0050530  0.7401688

 Al 
  0.2542659  0.2745978  0.4962527

 Al 
  0.9900698  0.5076853  0.4931055

 Al 
  0.0150116  0.7377370  0.7548277

 Al 
  0.2482130  0.5078932  0.7604562

 Al 
  0.2455448  0.7245718  0.4902926

 Al 
  0.4969964  0.5002153  0.0124251

 Al 
  0.4897567  0.7507883  0.2459495

 Al 
  0.7482860  0.5122581  0.2626417

 Al 
  0.7564873  0.7517945  0.9854413

 Al 
  0.4911094  0.0019034  0.4940300

 Al 
  0.5134560  0.2396503  0.7604054

 Al 
  0.7676068  0.0058487  0.7463504

 Al 
  0.7482488  0.2408247  0.4886020

 Al 
  0.4906552  0.4961450  0.5136577

 Al 
  0.4929471  0.7486993  0.7398025

 Al 
  0.7497389  0.4870180  0.7652072

 Al 
  0.7354327  0.7521274  0.5082694

