32 
charge = 0 
 Al 
  0.0109784  0.0168556  0.9836419

 Al 
  0.0034961  0.2459977  0.2589389

 Al 
  0.2485273  0.9985607  0.2580355

 Al 
  0.2472724  0.2581877  0.9881120

 Al 
  0.5116405  0.9739023  0.9901218

 Al 
  0.4840961  0.2429125  0.2392369

 Al 
  0.7583214  0.9920499  0.2279429

 Al 
  0.7561494  0.2425004  0.0105317

 Al 
  0.9999616  0.5104822  0.0236721

 Al 
  0.9870130  0.7693493  0.2588708

 Al 
  0.2350502  0.5045208  0.2582644

 Al 
  0.2472266  0.7510878  0.0028674

 Al 
  0.9996485  0.9865984  0.5027251

 Al 
  0.0261608  0.2595416  0.7418296

 Al 
  0.2515272  0.0046186  0.7406044

 Al 
  0.2514925  0.2744530  0.4974915

 Al 
  0.9908606  0.5068140  0.4961524

 Al 
  0.0153594  0.7377914  0.7561371

 Al 
  0.2447725  0.5082162  0.7604846

 Al 
  0.2478367  0.7279107  0.4896379

 Al 
  0.4974160  0.5005359  0.0094995

 Al 
  0.4885761  0.7480261  0.2454383

 Al 
  0.7472712  0.5132729  0.2607829

 Al 
  0.7546198  0.7524504  0.9842929

 Al 
  0.4931674  0.0011571  0.4940733

 Al 
  0.5141033  0.2418185  0.7608856

 Al 
  0.7695683  0.0036817  0.7445250

 Al 
  0.7503082  0.2402604  0.4888335

 Al 
  0.4908000  0.4968974  0.5125093

 Al 
  0.4922677  0.7487761  0.7400599

 Al 
  0.7475422  0.4882097  0.7649757

 Al 
  0.7369709  0.7525642  0.5088275

