32 
charge = 0 
 Al 
  0.0105391  0.0161242  0.9859240

 Al 
  0.0050790  0.2463937  0.2560542

 Al 
  0.2507549  0.0038501  0.2550517

 Al 
  0.2484790  0.2580615  0.9871306

 Al 
  0.5092632  0.9730607  0.9877259

 Al 
  0.4759467  0.2405178  0.2438221

 Al 
  0.7592842  0.9895711  0.2266744

 Al 
  0.7551124  0.2391874  0.0077212

 Al 
  0.0055901  0.5134152  0.0263403

 Al 
  0.9842310  0.7646144  0.2607606

 Al 
  0.2366517  0.5064254  0.2609982

 Al 
  0.2490656  0.7513428  0.0032102

 Al 
  0.0059279  0.9863546  0.5066705

 Al 
  0.0234345  0.2597347  0.7405871

 Al 
  0.2483615  0.0032548  0.7414274

 Al 
  0.2465918  0.2724481  0.4999554

 Al 
  0.9919348  0.5051903  0.5021298

 Al 
  0.0147381  0.7389486  0.7581543

 Al 
  0.2397060  0.5083993  0.7604896

 Al 
  0.2516410  0.7358831  0.4894820

 Al 
  0.4981585  0.5013044  0.0038340

 Al 
  0.4871405  0.7431253  0.2452935

 Al 
  0.7449854  0.5144164  0.2570727

 Al 
  0.7517066  0.7526991  0.9825318

 Al 
  0.4970596  0.9998540  0.4941562

 Al 
  0.5145735  0.2454841  0.7611801

 Al 
  0.7723343  0.9998453  0.7415252

 Al 
  0.7537053  0.2396305  0.4895785

 Al 
  0.4923741  0.4980434  0.5099116

 Al 
  0.4910995  0.7488528  0.7411737

 Al 
  0.7443332  0.4908594  0.7639300

 Al 
  0.7401973  0.7531112  0.5094995

