32 
charge = 0 
 Al 
  0.0104723  0.0156960  0.9867036

 Al 
  0.0055133  0.2465125  0.2551879

 Al 
  0.2512413  0.0052188  0.2541149

 Al 
  0.2488899  0.2579612  0.9870489

 Al 
  0.5084216  0.9731536  0.9871046

 Al 
  0.4739097  0.2400005  0.2451153

 Al 
  0.7593312  0.9889981  0.2266026

 Al 
  0.7547993  0.2384832  0.0068722

 Al 
  0.0070046  0.5140958  0.0268576

 Al 
  0.9837360  0.7630687  0.2611145

 Al 
  0.2372296  0.5068808  0.2615378

 Al 
  0.2495384  0.7514913  0.0033290

 Al 
  0.0077360  0.9864363  0.5077014

 Al 
  0.0222637  0.2597359  0.7403198

 Al 
  0.2476202  0.0027833  0.7416811

 Al 
  0.2452948  0.2715880  0.5006856

 Al 
  0.9921712  0.5047708  0.5038402

 Al 
  0.0143384  0.7394721  0.7586605

 Al 
  0.2385402  0.5083969  0.7604611

 Al 
  0.2526174  0.7384350  0.4896329

 Al 
  0.4983417  0.5015371  0.0022152

 Al 
  0.4868769  0.7418123  0.2453802

 Al 
  0.7442899  0.5145797  0.2559886

 Al 
  0.7509975  0.7525828  0.9821024

 Al 
  0.4981635  0.9994951  0.4941896

 Al 
  0.5145587  0.2464259  0.7611331

 Al 
  0.7729469  0.9988082  0.7407641

 Al 
  0.7545926  0.2395253  0.4898297

 Al 
  0.4930090  0.4983095  0.5091085

 Al 
  0.4907764  0.7488441  0.7415759

 Al 
  0.7436030  0.4916960  0.7635204

 Al 
  0.7411762  0.7532040  0.5096208

