32 
charge = 0 
 Al 
  0.0105032  0.0159225  0.9863039

 Al 
  0.0052955  0.2464519  0.2556284

 Al 
  0.2510024  0.0045357  0.2545926

 Al 
  0.2486795  0.2580145  0.9870823

 Al 
  0.5088548  0.9730904  0.9874152

 Al 
  0.4749245  0.2402530  0.2444631

 Al 
  0.7593176  0.9892815  0.2266262

 Al 
  0.7549577  0.2388285  0.0073041

 Al 
  0.0062992  0.5137592  0.0266076

 Al 
  0.9839711  0.7638582  0.2609438

 Al 
  0.2369313  0.5066544  0.2612742

 Al 
  0.2493020  0.7514133  0.0032684

 Al 
  0.0068202  0.9863881  0.5071853

 Al 
  0.0228751  0.2597384  0.7404485

 Al 
  0.2479865  0.0030246  0.7415512

 Al 
  0.2459445  0.2720360  0.5003156

 Al 
  0.9920548  0.5049800  0.5029763

 Al 
  0.0145513  0.7391986  0.7584080

 Al 
  0.2391169  0.5084006  0.7604772

 Al 
  0.2521298  0.7371318  0.4895475

 Al 
  0.4982501  0.5014195  0.0030333

 Al 
  0.4870031  0.7424719  0.2453319

 Al 
  0.7446438  0.5145055  0.2565368

 Al 
  0.7513502  0.7526496  0.9823165

 Al 
  0.4976053  0.9996758  0.4941723

 Al 
  0.5145735  0.2459544  0.7611641

 Al 
  0.7726462  0.9993292  0.7411452

 Al 
  0.7541471  0.2395748  0.4897010

 Al 
  0.4926811  0.4981771  0.5095169

 Al 
  0.4909386  0.7488503  0.7413692

 Al 
  0.7439632  0.4912678  0.7637332

 Al 
  0.7406787  0.7531607  0.5095626

