32 
charge = 0 
 Al 
  0.0103980  0.0145364  0.9884919

 Al 
  0.0063809  0.2467935  0.2532969

 Al 
  0.2520531  0.0078523  0.2520383

 Al 
  0.2498156  0.2576716  0.9870638

 Al 
  0.5064650  0.9737587  0.9858831

 Al 
  0.4699965  0.2391788  0.2478169

 Al 
  0.7591691  0.9879301  0.2267809

 Al 
  0.7541137  0.2372568  0.0050295

 Al 
  0.0097545  0.5153495  0.0276669

 Al 
  0.9830602  0.7596159  0.2616974

 Al 
  0.2385748  0.5077595  0.2624672

 Al 
  0.2504715  0.7518984  0.0036075

 Al 
  0.0115700  0.9867568  0.5097025

 Al 
  0.0193283  0.2596406  0.7399349

 Al 
  0.2462700  0.0017153  0.7422702

 Al 
  0.2427132  0.2694644  0.5022697

 Al 
  0.9926006  0.5039788  0.5074155

 Al 
  0.0132518  0.7407962  0.7596567

 Al 
  0.2364128  0.5083486  0.7603336

 Al 
  0.2545406  0.7441117  0.4901738

 Al 
  0.4986721  0.5020321  0.9988119

 Al 
  0.4864932  0.7391726  0.2456821

 Al 
  0.7427949  0.5147047  0.2536694

 Al 
  0.7496473  0.7521336  0.9812893

 Al 
  0.5004888  0.9987439  0.4942800

 Al 
  0.5143359  0.2482798  0.7608497

 Al 
  0.7740285  0.9966932  0.7392827

 Al 
  0.7563858  0.2393904  0.4903854

 Al 
  0.4945089  0.4987884  0.5073585

 Al 
  0.4901020  0.7487723  0.7424868

 Al 
  0.7422875  0.4935634  0.7625142

 Al 
  0.7433159  0.7533142  0.5097941

