32 
charge = 0 
 Al 
  0.0104252  0.0125897  0.9910326

 Al 
  0.0073598  0.2472477  0.2507623

 Al 
  0.2526397  0.0105861  0.2492005

 Al 
  0.2510618  0.2571543  0.9873608

 Al 
  0.5036756  0.9752970  0.9845181

 Al 
  0.4657975  0.2387431  0.2512103

 Al 
  0.7585033  0.9868039  0.2275952

 Al 
  0.7531954  0.2361331  0.0025865

 Al 
  0.0128112  0.5165871  0.0281805

 Al 
  0.9828944  0.7549255  0.2622110

 Al 
  0.2404881  0.5087360  0.2633842

 Al 
  0.2515222  0.7525939  0.0040171

 Al 
  0.0164546  0.9874152  0.5118435

 Al 
  0.0147394  0.2593003  0.7398978

 Al 
  0.2449879  0.0002549  0.7431934

 Al 
  0.2397604  0.2662405  0.5043896

 Al 
  0.9930486  0.5032090  0.5118546

 Al 
  0.0114598  0.7428593  0.7607940

 Al 
  0.2343213  0.5082397  0.7600069

 Al 
  0.2567323  0.7517870  0.4912393

 Al 
  0.4989518  0.5026422  0.9945263

 Al 
  0.4863311  0.7361096  0.2462353

 Al 
  0.7408915  0.5144015  0.2506497

 Al 
  0.7481758  0.7512326  0.9804465

 Al 
  0.5034565  0.9977971  0.4944471

 Al 
  0.5136726  0.2503923  0.7600973

 Al 
  0.7749975  0.9941476  0.7376442

 Al 
  0.7585268  0.2393817  0.4911094

 Al 
  0.4966413  0.4992278  0.5050604

 Al 
  0.4892580  0.7485657  0.7437045

 Al 
  0.7410277  0.4961277  0.7609388

 Al 
  0.7461933  0.7532684  0.5098621

