32 
charge = 0 
 Al 
  0.0103930  0.0138161  0.9894795

 Al 
  0.0067955  0.2469605  0.2522944

 Al 
  0.2523538  0.0090466  0.2509220

 Al 
  0.2503106  0.2574835  0.9871504

 Al 
  0.5053797  0.9742723  0.9853064

 Al 
  0.4681946  0.2389127  0.2491882

 Al 
  0.7589612  0.9874474  0.2270321

 Al 
  0.7537498  0.2367482  0.0040580

 Al 
  0.0110452  0.5158965  0.0279429

 Al 
  0.9829006  0.7577632  0.2619289

 Al 
  0.2393211  0.5081704  0.2628632

 Al 
  0.2509133  0.7521546  0.0037647

 Al 
  0.0135389  0.9869895  0.5106257

 Al 
  0.0175957  0.2595367  0.7398507

 Al 
  0.2456920  0.0011386  0.7426130

 Al 
  0.2414769  0.2682330  0.5031075

 Al 
  0.9927912  0.5036335  0.5092211

 Al 
  0.0125823  0.7415784  0.7601319

 Al 
  0.2354883  0.5083090  0.7602272

 Al 
  0.2554577  0.7471474  0.4905549

 Al 
  0.4988070  0.5022808  0.9970794

 Al 
  0.4863831  0.7378954  0.2458851

 Al 
  0.7420251  0.5146490  0.2524640

 Al 
  0.7490236  0.7518106  0.9809230

 Al 
  0.5016806  0.9983615  0.4943394

 Al 
  0.5141206  0.2491634  0.7606047

 Al 
  0.7744753  0.9956487  0.7385884

 Al 
  0.7572657  0.2393644  0.4906762

 Al 
  0.4953418  0.4989889  0.5064403

 Al 
  0.4897592  0.7487055  0.7429731

 Al 
  0.7417244  0.4945708  0.7619227

 Al 
  0.7444520  0.7533229  0.5098423

