32 
charge = 0 
 Al 
  0.0104091  0.0130154  0.9905079

 Al 
  0.0071803  0.2471474  0.2512747

 Al 
  0.2525679  0.0101109  0.2497772

 Al 
  0.2508118  0.2572694  0.9872816

 Al 
  0.5042498  0.9749233  0.9847693

 Al 
  0.4665499  0.2387679  0.2505433

 Al 
  0.7586741  0.9870068  0.2273835

 Al 
  0.7533798  0.2363175  0.0030766

 Al 
  0.0122482  0.5163767  0.0281261

 Al 
  0.9828647  0.7558735  0.2621256

 Al 
  0.2400958  0.5085553  0.2632196

 Al 
  0.2513279  0.7524405  0.0039317

 Al 
  0.0154943  0.9872630  0.5114635

 Al 
  0.0157208  0.2593894  0.7398582

 Al 
  0.2451983  0.0005495  0.7429904

 Al 
  0.2403099  0.2669200  0.5039602

 Al 
  0.9929669  0.5033365  0.5109920

 Al 
  0.0118459  0.7424212  0.7605812

 Al 
  0.2346777  0.5082644  0.7600886

 Al 
  0.2563227  0.7502401  0.4909980

 Al 
  0.4989122  0.5025246  0.9953666

 Al 
  0.4863336  0.7366838  0.2461141

 Al 
  0.7412640  0.5145067  0.2512524

 Al 
  0.7484456  0.7514356  0.9805938

 Al 
  0.5028687  0.9979828  0.4944087

 Al 
  0.5138384  0.2499975  0.7602854

 Al 
  0.7748441  0.9946364  0.7379437

 Al 
  0.7581172  0.2393681  0.4909670

 Al 
  0.4962044  0.4991572  0.5055183

 Al 
  0.4894226  0.7486176  0.7434632

 Al 
  0.7412381  0.4956054  0.7612791

 Al 
  0.7456116  0.7532956  0.5098634

