32 
charge = 0 
 Al 
  0.0105267  0.0107532  0.9931563

 Al 
  0.0079612  0.2477068  0.2487439

 Al 
  0.2526867  0.0120365  0.2469024

 Al 
  0.2520234  0.2566494  0.9877432

 Al 
  0.5013799  0.9770742  0.9836543

 Al 
  0.4633211  0.2389944  0.2537511

 Al 
  0.7576593  0.9861034  0.2286446

 Al 
  0.7524726  0.2355960  0.0006720

 Al 
  0.0147629  0.5172145  0.0281545

 Al 
  0.9833177  0.7512103  0.2624833

 Al 
  0.2420474  0.5093770  0.2639696

 Al 
  0.2521942  0.7532548  0.0043773

 Al 
  0.0200881  0.9880984  0.5130600

 Al 
  0.0106245  0.2588449  0.7403260

 Al 
  0.2444013  0.9991102  0.7441067

 Al 
  0.2378261  0.2634474  0.5060950

 Al 
  0.9933419  0.5028637  0.5150673

 Al 
  0.0098324  0.7446698  0.7615465

 Al 
  0.2332236  0.5081432  0.7595936

 Al 
  0.2581939  0.7578263  0.4923085

 Al 
  0.4990124  0.5030704  0.9913470

 Al 
  0.4864722  0.7340973  0.2467452

 Al 
  0.7394980  0.5137592  0.2483045

 Al 
  0.7472378  0.7503564  0.9799899

 Al 
  0.5057188  0.9970905  0.4946265

 Al 
  0.5128533  0.2518007  0.7591666

 Al 
  0.7753799  0.9923556  0.7366219

 Al 
  0.7600379  0.2395154  0.4916440

 Al 
  0.4983664  0.4994122  0.5033043

 Al 
  0.4886392  0.7483169  0.7446203

 Al 
  0.7404039  0.4981932  0.7594847

 Al 
  0.7484902  0.7530593  0.5097866

