32 
charge = 0 
 Al 
  0.0107829  0.0072014  0.9968133

 Al 
  0.0085169  0.2487377  0.2454767

 Al 
  0.2518749  0.0127085  0.2431018

 Al 
  0.2534491  0.2556643  0.9885179

 Al 
  0.4976424  0.9810715  0.9827212

 Al 
  0.4611900  0.2407579  0.2576160

 Al 
  0.7557027  0.9852742  0.2310925

 Al 
  0.7513304  0.2353609  0.9976226

 Al 
  0.0169744  0.5174397  0.0271744

 Al 
  0.9851121  0.7453492  0.2627778

 Al 
  0.2445423  0.5101567  0.2648396

 Al 
  0.2529305  0.7545109  0.0050418

 Al 
  0.0252549  0.9895661  0.5138941

 Al 
  0.0030964  0.2577113  0.7421551

 Al 
  0.2444025  0.9973974  0.7461611

 Al 
  0.2355465  0.2585788  0.5089847

 Al 
  0.9937788  0.5028984  0.5195485

 Al 
  0.0069242  0.7477959  0.7624672

 Al 
  0.2325553  0.5079959  0.7585441

 Al 
  0.2600824  0.7671823  0.4943802

 Al 
  0.4986944  0.5036199  0.9866925

 Al 
  0.4872828  0.7318425  0.2476313

 Al 
  0.7375749  0.5117853  0.2445646

 Al 
  0.7461004  0.7487909  0.9797634

 Al 
  0.5092731  0.9960559  0.4950361

 Al 
  0.5108819  0.2535642  0.7568549

 Al 
  0.7751250  0.9899634  0.7355700

 Al 
  0.7621058  0.2400203  0.4923568

 Al 
  0.5011212  0.4993849  0.5006868

 Al 
  0.4877704  0.7477575  0.7459000

 Al 
  0.7401577  0.5015346  0.7566408

 Al 
  0.7522264  0.7523217  0.5093733

