32 
charge = 0 
 Al 
  0.0106331  0.0092731  0.9947404

 Al 
  0.0082793  0.2481115  0.2472959

 Al 
  0.2524702  0.0126157  0.2452304

 Al 
  0.2526806  0.2562373  0.9880711

 Al 
  0.4997166  0.9786632  0.9831642

 Al 
  0.4620650  0.2395500  0.2554997

 Al 
  0.7568870  0.9856925  0.2296112

 Al 
  0.7519615  0.2353955  0.9993132

 Al 
  0.0158953  0.5174472  0.0278786

 Al 
  0.9839340  0.7485818  0.2626306

 Al 
  0.2431662  0.5097631  0.2643557

 Al 
  0.2525778  0.7537845  0.0046582

 Al 
  0.0225113  0.9886862  0.5136231

 Al 
  0.0074241  0.2584080  0.7409398

 Al 
  0.2442429  0.9983206  0.7449087

 Al 
  0.2366789  0.2613398  0.5073474

 Al 
  0.9935337  0.5027808  0.5171749

 Al 
  0.0085800  0.7460336  0.7620019

 Al 
  0.2327496  0.5080751  0.7591951

 Al 
  0.2590998  0.7620613  0.4931786

 Al 
  0.4989456  0.5033389  0.9892023

 Al 
  0.4867346  0.7329241  0.2471338

 Al 
  0.7385872  0.5130439  0.2466425

 Al 
  0.7466784  0.7496733  0.9797993

 Al 
  0.5073053  0.9966128  0.4947874

 Al 
  0.5120885  0.2526632  0.7582818

 Al 
  0.7754158  0.9912096  0.7360564

 Al 
  0.7610143  0.2396911  0.4919880

 Al 
  0.4995990  0.4994518  0.5021014

 Al 
  0.4882320  0.7480917  0.7452255

 Al 
  0.7401713  0.4996770  0.7583102

 Al 
  0.7501436  0.7528006  0.5096542

