32 
charge = 0 
 Al 
  0.0108794  0.0055752  0.9983454

 Al 
  0.0085627  0.2492785  0.2441946

 Al 
  0.2512239  0.0122915  0.2415821

 Al 
  0.2539416  0.2552238  0.9888421

 Al 
  0.4962056  0.9830887  0.9825380

 Al 
  0.4611034  0.2419930  0.2590676

 Al 
  0.7547089  0.9850379  0.2323350

 Al 
  0.7508910  0.2354883  0.9964321

 Al 
  0.0174880  0.5171947  0.0263885

 Al 
  0.9862445  0.7431253  0.2628682

 Al 
  0.2454779  0.5103683  0.2652022

 Al 
  0.2530828  0.7550579  0.0053401

 Al 
  0.0269269  0.9903136  0.5137444

 Al 
  0.9998181  0.2571098  0.7433729

 Al 
  0.2447886  0.9968158  0.7472613

 Al 
  0.2349710  0.2565541  0.5102062

 Al 
  0.9939780  0.5031434  0.5210188

 Al 
  0.0057126  0.7490557  0.7627197

 Al 
  0.2327125  0.5079439  0.7579637

 Al 
  0.2606901  0.7706128  0.4952948

 Al 
  0.4983776  0.5037721  0.9850552

 Al 
  0.4878434  0.7313932  0.2479840

 Al 
  0.7369635  0.5106047  0.2430845

 Al 
  0.7457725  0.7481721  0.9799082

 Al 
  0.5106628  0.9957007  0.4952490

 Al 
  0.5098312  0.2540703  0.7555901

 Al 
  0.7746498  0.9892332  0.7353980

 Al 
  0.7627791  0.2403322  0.4925598

 Al 
  0.5021719  0.4992624  0.4997661

 Al 
  0.4874858  0.7474890  0.7463059

 Al 
  0.7403532  0.5028340  0.7553054

 Al 
  0.7537028  0.7518650  0.5090788

