32 
charge = 0 
 Al 
  0.0109240  0.0014752  0.0019256

 Al 
  0.0082471  0.2508143  0.2414150

 Al 
  0.2491696  0.0098361  0.2382679

 Al 
  0.2548364  0.2541780  0.9895178

 Al 
  0.4932516  0.9885525  0.9825739

 Al 
  0.4626566  0.2458802  0.2621294

 Al 
  0.7520383  0.9846740  0.2356765

 Al 
  0.7499233  0.2362321  0.9938283

 Al 
  0.0177937  0.5158111  0.0236139

 Al 
  0.9896998  0.7385105  0.2630575

 Al 
  0.2473491  0.5106121  0.2661304

 Al 
  0.2531137  0.7562893  0.0060777

 Al 
  0.0294862  0.9924509  0.5122717

 Al 
  0.9919880  0.2554378  0.7472922

 Al 
  0.2465224  0.9958653  0.7504814

 Al 
  0.2344216  0.2519467  0.5131751

 Al 
  0.9946141  0.5041594  0.5235384

 Al 
  0.0030060  0.7517883  0.7630278

 Al 
  0.2340255  0.5078202  0.7562596

 Al 
  0.2618633  0.7772932  0.4974382

 Al 
  0.4971759  0.5039144  0.9819353

 Al 
  0.4896800  0.7315517  0.2487327

 Al 
  0.7359970  0.5069799  0.2397208

 Al 
  0.7452713  0.7469346  0.9808747

 Al 
  0.5137666  0.9950819  0.4958480

 Al 
  0.5068289  0.2547758  0.7518873

 Al 
  0.7726412  0.9881701  0.7356034

 Al 
  0.7639374  0.2412603  0.4927776

 Al 
  0.5043624  0.4987996  0.4980607

 Al 
  0.4870242  0.7468430  0.7469445

 Al 
  0.7414472  0.5056000  0.7518464

 Al 
  0.7569365  0.7504641  0.5080689

