32 
charge = 0 
 Al 
  0.0109500  0.0026954  0.0008960

 Al 
  0.0083956  0.2503341  0.2421823

 Al 
  0.2498206  0.0107383  0.2391812

 Al 
  0.2546161  0.2544775  0.9893384

 Al 
  0.4940374  0.9868756  0.9824972

 Al 
  0.4619709  0.2446352  0.2612928

 Al 
  0.7528526  0.9847557  0.2346567

 Al 
  0.7501968  0.2359586  0.9945535

 Al 
  0.0178283  0.5163259  0.0245508

 Al 
  0.9885971  0.7397555  0.2630043

 Al 
  0.2468578  0.5105762  0.2658495

 Al 
  0.2531484  0.7559502  0.0058611

 Al 
  0.0289552  0.9917752  0.5128496

 Al 
  0.9942565  0.2559552  0.7460138

 Al 
  0.2459136  0.9960745  0.7494604

 Al 
  0.2344711  0.2532498  0.5123001

 Al 
  0.9943976  0.5038117  0.5229407

 Al 
  0.0037610  0.7510371  0.7629783

 Al 
  0.2335169  0.5078573  0.7568004

 Al 
  0.2615502  0.7755730  0.4968269

 Al 
  0.4975892  0.5039057  0.9827335

 Al 
  0.4890748  0.7313314  0.2485285

 Al 
  0.7362098  0.5081481  0.2406824

 Al 
  0.7453814  0.7472551  0.9805022

 Al 
  0.5128905  0.9952267  0.4956611

 Al 
  0.5077719  0.2546359  0.7530605

 Al 
  0.7733491  0.9883855  0.7354599

 Al 
  0.7636602  0.2409658  0.4927528

 Al 
  0.5037709  0.4989518  0.4984865

 Al 
  0.4871269  0.7470274  0.7468034

 Al 
  0.7410462  0.5048451  0.7528872

 Al 
  0.7560368  0.7509121  0.5084092

