32 
charge = 0 
 Al 
  0.0097532  0.9942057  0.0075380

 Al 
  0.0066989  0.2539268  0.2377048

 Al 
  0.2453455  0.0027053  0.2341233

 Al 
  0.2555022  0.2526385  0.9903309

 Al 
  0.4900574  0.9991547  0.9840020

 Al 
  0.4694619  0.2539887  0.2661007

 Al 
  0.7470670  0.9845367  0.2420053

 Al 
  0.7482204  0.2384907  0.9902431

 Al 
  0.0159658  0.5113596  0.0162962

 Al 
  0.9971388  0.7328189  0.2633335

 Al 
  0.2494072  0.5103275  0.2678853

 Al 
  0.2524627  0.7576234  0.0072818

 Al 
  0.0291347  0.9971016  0.5072039

 Al 
  0.9796248  0.2521261  0.7562398

 Al 
  0.2510037  0.9957589  0.7573140

 Al 
  0.2355960  0.2452292  0.5183803

 Al 
  0.9966066  0.5065306  0.5250854

 Al 
  0.9993664  0.7554317  0.7627370

 Al 
  0.2385674  0.5075145  0.7525494

 Al 
  0.2634894  0.7837001  0.5006114

 Al 
  0.4940028  0.5034008  0.9789305

 Al 
  0.4941142  0.7352235  0.2496795

 Al 
  0.7357309  0.4987525  0.2342904

 Al 
  0.7450398  0.7457552  0.9844067

 Al 
  0.5183852  0.9948592  0.4970732

 Al 
  0.5005334  0.2548228  0.7438320

 Al 
  0.7667826  0.9882135  0.7375773

 Al 
  0.7647109  0.2432231  0.4923556

 Al 
  0.5070826  0.4979531  0.4966264

 Al 
  0.4870415  0.7460027  0.7472353

 Al 
  0.7446550  0.5091406  0.7456636

 Al 
  0.7614499  0.7474816  0.5053661

