32 
charge = 0 
 Al 
  0.0105453  0.9975818  0.0050369

 Al 
  0.0075380  0.2524392  0.2392555

 Al 
  0.2470546  0.0063029  0.2357643

 Al 
  0.2553240  0.2532944  0.9899943

 Al 
  0.4912282  0.9941142  0.9831357

 Al 
  0.4657987  0.2501398  0.2644560

 Al 
  0.7493849  0.9845317  0.2390253

 Al 
  0.7490632  0.2373261  0.9917578

 Al 
  0.0171254  0.5136924  0.0200547

 Al 
  0.9935300  0.7351332  0.2632159

 Al 
  0.2486102  0.5105564  0.2670561

 Al 
  0.2528377  0.7571729  0.0067509

 Al 
  0.0300134  0.9948183  0.5098448

 Al 
  0.9851134  0.2537077  0.7518514

 Al 
  0.2488020  0.9955794  0.7540147

 Al 
  0.2347693  0.2481338  0.5159571

 Al 
  0.9955126  0.5054032  0.5247512

 Al 
  0.0008762  0.7538958  0.7629932

 Al 
  0.2361702  0.5076766  0.7543748

 Al 
  0.2627667  0.7814836  0.4992352

 Al 
  0.4956079  0.5037585  0.9799874

 Al 
  0.4918865  0.7330602  0.2492921

 Al 
  0.7356616  0.5028241  0.2367766

 Al 
  0.7450720  0.7461574  0.9824972

 Al 
  0.5163569  0.9948270  0.4964791

 Al 
  0.5035852  0.2549391  0.7477860

 Al 
  0.7698394  0.9879449  0.7364437

 Al 
  0.7645166  0.2422702  0.4926600

 Al 
  0.5059725  0.4983083  0.4970794

 Al 
  0.4868942  0.7463282  0.7471920

 Al 
  0.7430263  0.5076853  0.7485112

 Al 
  0.7595156  0.7489159  0.5067682

