32 
charge = 0 
 Al 
  0.0108002  0.9995669  0.0034813

 Al 
  0.0079402  0.2515952  0.2403049

 Al 
  0.2481300  0.0082100  0.2369635

 Al 
  0.2551136  0.2537300  0.9897678

 Al 
  0.4921712  0.9912393  0.9827905

 Al 
  0.4640327  0.2479271  0.2633298

 Al 
  0.7507463  0.9845837  0.2373026

 Al 
  0.7495050  0.2367309  0.9927702

 Al 
  0.0175647  0.5148569  0.0219742

 Al 
  0.9915239  0.7367519  0.2631380

 Al 
  0.2480199  0.5106146  0.2665796

 Al 
  0.2530060  0.7567633  0.0064130

 Al 
  0.0299577  0.9935721  0.5111814

 Al 
  0.9885513  0.2546037  0.7494443

 Al 
  0.2475868  0.9956562  0.7521657

 Al 
  0.2345032  0.2500149  0.5145376

 Al 
  0.9950114  0.5047510  0.5242537

 Al 
  0.0019108  0.7528724  0.7630464

 Al 
  0.2349847  0.5077546  0.7553661

 Al 
  0.2623199  0.7795802  0.4983479

 Al 
  0.4964519  0.5038723  0.9808747

 Al 
  0.4907109  0.7321482  0.2490223

 Al 
  0.7357730  0.5050208  0.2382605

 Al 
  0.7451488  0.7465088  0.9815900

 Al 
  0.5150710  0.9949186  0.4961499

 Al 
  0.5052819  0.2549032  0.7499418

 Al 
  0.7713665  0.9879796  0.7359487

 Al 
  0.7642740  0.2417417  0.4927541

 Al 
  0.5052002  0.4985558  0.4975125

 Al 
  0.4869239  0.7465744  0.7470992

 Al 
  0.7421699  0.5066791  0.7502116

 Al 
  0.7582508  0.7497240  0.5074736

