32 
charge = 0 
 Al 
  0.0104265  0.9969073  0.0055505

 Al 
  0.0073858  0.2527313  0.2389238

 Al 
  0.2466982  0.0056161  0.2353955

 Al 
  0.2553772  0.2531545  0.9900648

 Al 
  0.4909497  0.9951054  0.9832793

 Al 
  0.4664670  0.2509022  0.2648111

 Al 
  0.7489221  0.9845230  0.2396156

 Al 
  0.7489072  0.2375439  0.9914336

 Al 
  0.0169336  0.5132605  0.0193542

 Al 
  0.9942317  0.7346295  0.2632419

 Al 
  0.2487884  0.5105242  0.2672207

 Al 
  0.2527697  0.7572892  0.0068623

 Al 
  0.0299354  0.9952577  0.5093523

 Al 
  0.9839810  0.2533983  0.7527004

 Al 
  0.2492315  0.9955856  0.7546594

 Al 
  0.2348980  0.2475249  0.5164398

 Al 
  0.9957044  0.5056297  0.5248688

 Al 
  0.0005495  0.7542213  0.7629585

 Al 
  0.2366120  0.5076469  0.7540246

 Al 
  0.2629152  0.7820256  0.4995235

 Al 
  0.4953035  0.5037040  0.9797324

 Al 
  0.4923085  0.7334328  0.2493763

 Al 
  0.7356505  0.5020445  0.2362779

 Al 
  0.7450572  0.7460571  0.9828412

 Al 
  0.5167776  0.9948146  0.4965942

 Al 
  0.5029912  0.2549317  0.7470249

 Al 
  0.7692750  0.9879672  0.7366418

 Al 
  0.7645760  0.2424546  0.4926130

 Al 
  0.5062126  0.4982290  0.4969605

 Al 
  0.4869029  0.7462527  0.7472105

 Al 
  0.7433357  0.5080008  0.7479370

 Al 
  0.7599228  0.7486337  0.5065096

