32 
charge = 0 
 Al 
  0.0108547  0.0002129  0.0029615

 Al 
  0.0080528  0.2513267  0.2406688

 Al 
  0.2484827  0.0087867  0.2373880

 Al 
  0.2550282  0.2538785  0.9896874

 Al 
  0.4925177  0.9903210  0.9827038

 Al 
  0.4635278  0.2472229  0.2629375

 Al 
  0.7511856  0.9846097  0.2367482

 Al 
  0.7496461  0.2365526  0.9931192

 Al 
  0.0176650  0.5151985  0.0225521

 Al 
  0.9908940  0.7373236  0.2631107

 Al 
  0.2478046  0.5106208  0.2664262

 Al 
  0.2530494  0.7566111  0.0063004

 Al 
  0.0298451  0.9931847  0.5115737

 Al 
  0.9896998  0.2548896  0.7486956

 Al 
  0.2472130  0.9957118  0.7515853

 Al 
  0.2344562  0.2506547  0.5140773

 Al 
  0.9948678  0.5045456  0.5240397

 Al 
  0.0022709  0.7525172  0.7630476

 Al 
  0.2346394  0.5077781  0.7556755

 Al 
  0.2621690  0.7788587  0.4980471

 Al 
  0.4967068  0.5038934  0.9812101

 Al 
  0.4903507  0.7319130  0.2489283

 Al 
  0.7358349  0.5057015  0.2387506

 Al 
  0.7451834  0.7466425  0.9813301

 Al 
  0.5146379  0.9949656  0.4960460

 Al 
  0.5058153  0.2548710  0.7506151

 Al 
  0.7718195  0.9880253  0.7358163

 Al 
  0.7641726  0.2415759  0.4927702

 Al 
  0.5049280  0.4986387  0.4976833

 Al 
  0.4869499  0.7466623  0.7470546

 Al 
  0.7419138  0.5063277  0.7507661

 Al 
  0.7578177  0.7499790  0.5076840

