32 
charge = 0 
 Al 
  0.0095329  0.9935387  0.0080095

 Al 
  0.0065133  0.2542263  0.2374338

 Al 
  0.2450374  0.0019566  0.2338647

 Al 
  0.2555096  0.2525234  0.9903928

 Al 
  0.4898953  0.0001708  0.9842174

 Al 
  0.4702762  0.2547485  0.2663841

 Al 
  0.7466128  0.9845540  0.2425981

 Al 
  0.7480298  0.2387419  0.9899770

 Al 
  0.0156787  0.5108509  0.0154770

 Al 
  0.9978763  0.7324241  0.2633521

 Al 
  0.2495384  0.5102631  0.2680498

 Al 
  0.2523811  0.7576679  0.0073783

 Al 
  0.0288142  0.9975744  0.5066358

 Al 
  0.9786013  0.2518056  0.7571395

 Al 
  0.2514442  0.9958393  0.7579810

 Al 
  0.2358126  0.2446995  0.5188592

 Al 
  0.9968665  0.5067484  0.5250792

 Al 
  0.9991065  0.7557089  0.7626603

 Al 
  0.2390934  0.5074774  0.7521682

 Al 
  0.2636268  0.7839897  0.5008638

 Al 
  0.4936637  0.5033055  0.9787882

 Al 
  0.4945869  0.7357371  0.2497463

 Al 
  0.7357829  0.4979011  0.2338015

 Al 
  0.7450460  0.7457044  0.9848386

 Al 
  0.5187602  0.9948951  0.4971957

 Al 
  0.4999097  0.2547770  0.7430090

 Al 
  0.7661081  0.9883100  0.7378434

 Al 
  0.7647196  0.2434199  0.4922764

 Al 
  0.5072744  0.4978999  0.4965769

 Al 
  0.4871046  0.7459556  0.7472316

 Al 
  0.7449965  0.5093906  0.7451141

 Al 
  0.7618002  0.7471932  0.5050554

