32 
charge = 0 
 Al 
  0.0087446  0.9915970  0.0093349

 Al 
  0.0059353  0.2551012  0.2367160

 Al 
  0.2442169  0.9997228  0.2332583

 Al 
  0.2554725  0.2522264  0.9905784

 Al 
  0.4895748  0.0031669  0.9849426

 Al 
  0.4728145  0.2569477  0.2671229

 Al 
  0.7453047  0.9846394  0.2443283

 Al 
  0.7473949  0.2395129  0.9892802

 Al 
  0.0147282  0.5092792  0.0129325

 Al 
  0.0000644  0.7313908  0.2633966

 Al 
  0.2498812  0.5100317  0.2685300

 Al 
  0.2521311  0.7576939  0.0076283

 Al 
  0.0275915  0.9989901  0.5049045

 Al 
  0.9757586  0.2508552  0.7598064

 Al 
  0.2527189  0.9961524  0.7599352

 Al 
  0.2365440  0.2432479  0.5202539

 Al 
  0.9977179  0.5073536  0.5249183

 Al 
  0.9984332  0.7564712  0.7623818

 Al 
  0.2407232  0.5073610  0.7510074

 Al 
  0.2640129  0.7845515  0.5015692

 Al 
  0.4926415  0.5029726  0.9784986

 Al 
  0.4960311  0.7373967  0.2499196

 Al 
  0.7360044  0.4953294  0.2323759

 Al 
  0.7450819  0.7456104  0.9862061

 Al 
  0.5198010  0.9950572  0.4975694

 Al 
  0.4980669  0.2546074  0.7405388

 Al 
  0.7639981  0.9886714  0.7387023

 Al 
  0.7646862  0.2440139  0.4920115

 Al 
  0.5077806  0.4977947  0.4965113

 Al 
  0.4873670  0.7458566  0.7472093

 Al 
  0.7460200  0.5100465  0.7435511

 Al 
  0.7627605  0.7463517  0.5040840

