32 
charge = 0 
 Al 
  0.0065999  0.9881021  0.0115093

 Al 
  0.0047634  0.2566568  0.2357470

 Al 
  0.2431489  0.9955856  0.2328610

 Al 
  0.2551148  0.2518848  0.9909683

 Al 
  0.4897072  0.0086766  0.9867024

 Al 
  0.4780642  0.2607309  0.2680437

 Al 
  0.7430709  0.9849871  0.2474271

 Al 
  0.7457861  0.2410623  0.9884016

 Al 
  0.0125427  0.5061086  0.0076333

 Al 
  0.0041198  0.7300270  0.2633991

 Al 
  0.2503898  0.5094240  0.2693728

 Al 
  0.2516905  0.7572150  0.0079117

 Al 
  0.0241312  0.0016633  0.5015148

 Al 
  0.9713480  0.2490743  0.7646725

 Al 
  0.2548426  0.9970199  0.7634214

 Al 
  0.2382518  0.2410277  0.5227105

 Al 
  0.9997215  0.5082471  0.5240409

 Al 
  0.9975929  0.7576927  0.7616034

 Al 
  0.2440399  0.5071160  0.7486981

 Al 
  0.2646206  0.7843782  0.5027239

 Al 
  0.4906886  0.5021348  0.9785246

 Al 
  0.4988998  0.7410450  0.2501436

 Al 
  0.7367321  0.4903532  0.2297906

 Al 
  0.7452168  0.7456673  0.9891330

 Al 
  0.5213950  0.9956091  0.4983144

 Al 
  0.4947144  0.2541706  0.7358163

 Al 
  0.7595416  0.9896094  0.7406230

 Al 
  0.7644028  0.2451846  0.4914212

 Al 
  0.5084835  0.4979036  0.4967155

 Al 
  0.4882258  0.7458826  0.7471660

 Al 
  0.7479333  0.5108955  0.7409720

 Al 
  0.7642196  0.7448604  0.5020148

