32 
charge = 0 
 Al 
  0.0090293  0.9922331  0.0089080

 Al 
  0.0061309  0.2548141  0.2369388

 Al 
  0.2444706  0.0004616  0.2334315

 Al 
  0.2554948  0.2523167  0.9905166

 Al 
  0.4896540  0.0021806  0.9846876

 Al 
  0.4719556  0.2562324  0.2668964

 Al 
  0.7457292  0.9846047  0.2437614

 Al 
  0.7476177  0.2392530  0.9894956

 Al 
  0.0150574  0.5098089  0.0137926

 Al 
  0.9993416  0.7317101  0.2633842

 Al 
  0.2497748  0.5101146  0.2683729

 Al 
  0.2522140  0.7577038  0.0075516

 Al 
  0.0280407  0.9985211  0.5054836

 Al 
  0.9766658  0.2511695  0.7589278

 Al 
  0.2523056  0.9960361  0.7592941

 Al 
  0.2362878  0.2437082  0.5197985

 Al 
  0.9974222  0.5071605  0.5249938

 Al 
  0.9986399  0.7562287  0.7624833

 Al 
  0.2401738  0.5074006  0.7513947

 Al 
  0.2638892  0.7844154  0.5013440

 Al 
  0.4929818  0.5030902  0.9785716

 Al 
  0.4955473  0.7368261  0.2498663

 Al 
  0.7359190  0.4961858  0.2328437

 Al 
  0.7450671  0.7456326  0.9857396

 Al 
  0.5194693  0.9949941  0.4974444

 Al 
  0.4986746  0.2546693  0.7413606

 Al 
  0.7647146  0.9885402  0.7384065

 Al 
  0.7647060  0.2438159  0.4921031

 Al 
  0.5076234  0.4978194  0.4965200

 Al 
  0.4872667  0.7458814  0.7472180

 Al 
  0.7456809  0.5098448  0.7440560

 Al 
  0.7624561  0.7466276  0.5044144

