32 
charge = 0 
 Al 
  0.0070083  0.9886429  0.0111938

 Al 
  0.0049564  0.2564205  0.2358646

 Al 
  0.2432701  0.9962304  0.2328499

 Al 
  0.2552002  0.2519157  0.9908990

 Al 
  0.4896131  0.0078152  0.9863831

 Al 
  0.4771880  0.2601691  0.2679434

 Al 
  0.7434013  0.9849116  0.2469519

 Al 
  0.7460905  0.2408061  0.9884969

 Al 
  0.0129263  0.5066296  0.0085256

 Al 
  0.0034850  0.7301916  0.2634078

 Al 
  0.2503156  0.5095379  0.2692466

 Al 
  0.2517549  0.7573462  0.0078882

 Al 
  0.0247884  0.0012400  0.5020630

 Al 
  0.9719544  0.2493577  0.7639226

 Al 
  0.2545381  0.9968603  0.7628917

 Al 
  0.2379523  0.2413333  0.5223405

 Al 
  0.9993627  0.5081333  0.5242327

 Al 
  0.9976858  0.7575157  0.7617531

 Al 
  0.2434917  0.5071568  0.7490780

 Al 
  0.2645376  0.7845169  0.5025543

 Al 
  0.4909992  0.5022883  0.9784677

 Al 
  0.4984308  0.7404200  0.2501188

 Al 
  0.7365873  0.4911539  0.2301928

 Al 
  0.7451908  0.7456376  0.9886355

 Al 
  0.5211784  0.9954977  0.4981907

 Al 
  0.4952292  0.2542486  0.7365700

 Al 
  0.7602978  0.9894399  0.7402876

 Al 
  0.7644671  0.2449916  0.4915215

 Al 
  0.5083944  0.4978516  0.4966536

 Al 
  0.4880513  0.7458566  0.7471685

 Al 
  0.7476338  0.5107977  0.7413433

 Al 
  0.7640203  0.7450869  0.5023675

