32 
charge = 0 
 Al 
  0.0084389  0.9909745  0.0097433

 Al 
  0.0057398  0.2553809  0.2365106

 Al 
  0.2439830  0.9989951  0.2331147

 Al 
  0.2554391  0.2521447  0.9906403

 Al 
  0.4895240  0.0041372  0.9852087

 Al 
  0.4736820  0.2576432  0.2673296

 Al 
  0.7448926  0.9846802  0.2448827

 Al 
  0.7471610  0.2397715  0.9890835

 Al 
  0.0143867  0.5087483  0.0120625

 Al 
  0.0007772  0.7310987  0.2634065

 Al 
  0.2499802  0.5099438  0.2686822

 Al 
  0.2520506  0.7576642  0.0076976

 Al 
  0.0271014  0.9994555  0.5043265

 Al 
  0.9748985  0.2505458  0.7606715

 Al 
  0.2531187  0.9962774  0.7605626

 Al 
  0.2368101  0.2428135  0.5206982

 Al 
  0.9980261  0.5075355  0.5248206

 Al 
  0.9982451  0.7567026  0.7622717

 Al 
  0.2412764  0.5073214  0.7506188

 Al 
  0.2641317  0.7846381  0.5017846

 Al 
  0.4923036  0.5028476  0.9784478

 Al 
  0.4965150  0.7379820  0.2499691

 Al 
  0.7361009  0.4944768  0.2319180

 Al 
  0.7451005  0.7455980  0.9866814

 Al 
  0.5201141  0.9951290  0.4976932

 Al 
  0.4974704  0.2545419  0.7397233

 Al 
  0.7632716  0.9888112  0.7390067

 Al 
  0.7646577  0.2442107  0.4919162

 Al 
  0.5079254  0.4977811  0.4965163

 Al 
  0.4874783  0.7458393  0.7471994

 Al 
  0.7463554  0.5102309  0.7430659

 Al 
  0.7630464  0.7460819  0.5037473

