32 
charge = 0 
 Al 
  0.0073957  0.9891998  0.0108584

 Al 
  0.0051507  0.2561754  0.2359995

 Al 
  0.2434137  0.9968950  0.2328697

 Al 
  0.2552757  0.2519578  0.9908321

 Al 
  0.4895475  0.0069291  0.9860725

 Al 
  0.4763106  0.2595787  0.2678221

 Al 
  0.7437478  0.9848423  0.2464581

 Al 
  0.7463801  0.2405500  0.9886132

 Al 
  0.0133038  0.5071556  0.0094154

 Al 
  0.0028315  0.7303797  0.2634139

 Al 
  0.2502388  0.5096468  0.2691129

 Al 
  0.2518229  0.7574563  0.0078536

 Al 
  0.0254158  0.0008069  0.5026187

 Al 
  0.9726127  0.2496461  0.7631454

 Al 
  0.2542127  0.9967044  0.7623397

 Al 
  0.2376578  0.2416650  0.5219531

 Al 
  0.9990137  0.5080046  0.5244084

 Al 
  0.9977971  0.7573276  0.7618955

 Al 
  0.2429397  0.5071989  0.7494604

 Al 
  0.2644473  0.7846134  0.5023749

 Al 
  0.4913160  0.5024368  0.9784305

 Al 
  0.4979568  0.7397988  0.2500879

 Al 
  0.7364512  0.4919670  0.2306062

 Al 
  0.7451661  0.7456153  0.9881404

 Al 
  0.5209420  0.9953950  0.4980669

 Al 
  0.4957638  0.2543253  0.7373385

 Al 
  0.7610490  0.9892740  0.7399597

 Al 
  0.7645253  0.2447985  0.4916217

 Al 
  0.5082941  0.4978132  0.4966029

 Al 
  0.4878892  0.7458393  0.7471734

 Al 
  0.7473244  0.5106814  0.7417393

 Al 
  0.7638025  0.7453220  0.5027177

