32 
charge = 0 
 Al 
  0.0081122  0.9903668  0.0101332

 Al 
  0.0055430  0.2556544  0.2363225

 Al 
  0.2437701  0.9982786  0.2330021

 Al 
  0.2553945  0.2520729  0.9907034

 Al 
  0.4895030  0.0050889  0.9854859

 Al 
  0.4745557  0.2583139  0.2675140

 Al 
  0.7444953  0.9847272  0.2454235

 Al 
  0.7469148  0.2400314  0.9889065

 Al 
  0.0140340  0.5082162  0.0111851

 Al 
  0.0014764  0.7308326  0.2634127

 Al 
  0.2500718  0.5098510  0.2688320

 Al 
  0.2519714  0.7576147  0.0077583

 Al 
  0.0265742  0.9999134  0.5037523

 Al 
  0.9740867  0.2502413  0.7615180

 Al 
  0.2535023  0.9964123  0.7611740

 Al 
  0.2370848  0.2424051  0.5211314

 Al 
  0.9983441  0.5077051  0.5247017

 Al 
  0.9980768  0.7569217  0.7621541

 Al 
  0.2418308  0.5072806  0.7502314

 Al 
  0.2642431  0.7846753  0.5019912

 Al 
  0.4919695  0.5027164  0.9784194

 Al 
  0.4969989  0.7385785  0.2500136

 Al 
  0.7362074  0.4936303  0.2314700

 Al 
  0.7451203  0.7455955  0.9871628

 Al 
  0.5204099  0.9952094  0.4978182

 Al 
  0.4968863  0.2544726  0.7389164

 Al 
  0.7625377  0.9889585  0.7393174

 Al 
  0.7646206  0.2444075  0.4918197

 Al 
  0.5080602  0.4977786  0.4965336

 Al 
  0.4876033  0.7458307  0.7471895

 Al 
  0.7466846  0.5103980  0.7426019

 Al 
  0.7633162  0.7458208  0.5034082

