32 
charge = 0 
 Al 
  0.0014170  0.9835788  0.0138236

 Al 
  0.0029206  0.2584018  0.2355156

 Al 
  0.2431674  0.9902987  0.2345837

 Al 
  0.2536471  0.2521348  0.9918742

 Al 
  0.4921204  0.0160116  0.9905339

 Al 
  0.4867036  0.2647196  0.2678667

 Al 
  0.7408371  0.9862829  0.2513032

 Al 
  0.7416737  0.2435572  0.9886008

 Al 
  0.0082979  0.5012338  0.9985323

 Al 
  0.0094649  0.7296235  0.2629956

 Al 
  0.2511497  0.5079600  0.2702874

 Al 
  0.2513465  0.7547857  0.0075825

 Al 
  0.0160735  0.0053475  0.4964346

 Al 
  0.9681476  0.2464507  0.7705980

 Al 
  0.2566630  0.9987550  0.7675313

 Al 
  0.2412913  0.2391825  0.5253737

 Al 
  0.0038451  0.5084897  0.5212341

 Al 
  0.9976016  0.7590528  0.7596468

 Al 
  0.2493292  0.5067361  0.7449792

 Al 
  0.2649745  0.7810170  0.5040889

 Al 
  0.4880427  0.5003428  0.9801891

 Al 
  0.5033154  0.7474135  0.2501275

 Al 
  0.7387283  0.4831890  0.2263885

 Al 
  0.7454792  0.7462935  0.9942540

 Al 
  0.5223826  0.9970459  0.4995619

 Al 
  0.4907690  0.2533612  0.7292807

 Al 
  0.7516955  0.9914274  0.7442825

 Al 
  0.7634919  0.2471647  0.4904745

 Al 
  0.5088795  0.4993132  0.4977711

 Al 
  0.4907158  0.7466722  0.7474098

 Al 
  0.7504616  0.5110242  0.7385723

 Al 
  0.7653656  0.7431340  0.4983021

