32 
charge = 0 
 Al 
  0.0037337  0.9852099  0.0130600

 Al 
  0.0036397  0.2578424  0.2354067

 Al 
  0.2429001  0.9921613  0.2335503

 Al 
  0.2543711  0.2519157  0.9914522

 Al 
  0.4908445  0.0133409  0.9888496

 Al 
  0.4832682  0.2634758  0.2681946

 Al 
  0.7414942  0.9856331  0.2499332

 Al 
  0.7435746  0.2425660  0.9882729

 Al 
  0.0100936  0.5031075  0.0022313

 Al 
  0.0075429  0.7295320  0.2632320

 Al 
  0.2508131  0.5086233  0.2700015

 Al 
  0.2514108  0.7560059  0.0078424

 Al 
  0.0196141  0.0039850  0.4983961

 Al 
  0.9688171  0.2474729  0.7685733

 Al 
  0.2561990  0.9980434  0.7661378

 Al 
  0.2400846  0.2396824  0.5245532

 Al 
  0.0020754  0.5085961  0.5225496

 Al 
  0.9974061  0.7585850  0.7605354

 Al 
  0.2472477  0.5068808  0.7464581

 Al 
  0.2649399  0.7827632  0.5036025

 Al 
  0.4889993  0.5011150  0.9792894

 Al 
  0.5016051  0.7448480  0.2501955

 Al 
  0.7378038  0.4858683  0.2276199

 Al 
  0.7453789  0.7459841  0.9921687

 Al 
  0.5222489  0.9964036  0.4990570

 Al 
  0.4920697  0.2536867  0.7316705

 Al 
  0.7549144  0.9906824  0.7427392

 Al 
  0.7639090  0.2463480  0.4908346

 Al 
  0.5088213  0.4985434  0.4972675

 Al 
  0.4895488  0.7462366  0.7472378

 Al 
  0.7495483  0.5111517  0.7392493

 Al 
  0.7650809  0.7437119  0.4998391

