32 
charge = 0 
 Al 
  0.0020284  0.9839661  0.0136478

 Al 
  0.0030989  0.2582805  0.2354636

 Al 
  0.2430684  0.9907344  0.2342830

 Al 
  0.2538463  0.2520655  0.9917591

 Al 
  0.4917640  0.0153730  0.9900908

 Al 
  0.4858448  0.2644523  0.2679818

 Al 
  0.7409720  0.9861009  0.2509801

 Al 
  0.7421848  0.2433097  0.9884882

 Al 
  0.0087619  0.5016930  0.9994691

 Al 
  0.0090107  0.7295716  0.2630662

 Al 
  0.2510569  0.5081382  0.2702267

 Al 
  0.2513527  0.7551223  0.0076642

 Al 
  0.0169992  0.0050196  0.4969197

 Al 
  0.9682404  0.2467068  0.7701339

 Al 
  0.2565801  0.9985756  0.7672120

 Al 
  0.2409930  0.2392815  0.5252030

 Al 
  0.0033872  0.5085429  0.5215880

 Al 
  0.9975311  0.7589426  0.7598832

 Al 
  0.2488107  0.5067707  0.7453492

 Al 
  0.2649795  0.7815009  0.5039726

 Al 
  0.4882691  0.5005433  0.9799342

 Al 
  0.5028934  0.7467700  0.2501535

 Al 
  0.7384795  0.4838350  0.2266806

 Al 
  0.7454557  0.7462106  0.9937256

 Al 
  0.5223838  0.9968776  0.4994344

 Al 
  0.4910586  0.2534417  0.7298488

 Al 
  0.7525147  0.9912393  0.7438840

 Al 
  0.7636020  0.2469544  0.4905611

 Al 
  0.5088758  0.4990929  0.4976375

 Al 
  0.4904002  0.7465472  0.7473553

 Al 
  0.7502450  0.5110774  0.7387072

 Al 
  0.7653136  0.7432652  0.4986956

