32 
charge = 0 
 Al 
  0.0026174  0.9843671  0.0134634

 Al 
  0.0032783  0.2581456  0.2354277

 Al 
  0.2429917  0.9911898  0.2340107

 Al 
  0.2540332  0.2520061  0.9916514

 Al 
  0.4914324  0.0147159  0.9896639

 Al 
  0.4849859  0.2641552  0.2680746

 Al 
  0.7411254  0.9859326  0.2506448

 Al 
  0.7426712  0.2430610  0.9883966

 Al 
  0.0092149  0.5021583  0.0003960

 Al 
  0.0085379  0.7295381  0.2631281

 Al 
  0.2509702  0.5083065  0.2701587

 Al 
  0.2513650  0.7554378  0.0077348

 Al 
  0.0178976  0.0046829  0.4974073

 Al 
  0.9683828  0.2469618  0.7696426

 Al 
  0.2564749  0.9983974  0.7668729

 Al 
  0.2406923  0.2393978  0.5250074

 Al 
  0.0029392  0.5085788  0.5219259

 Al 
  0.9974741  0.7588288  0.7601096

 Al 
  0.2482909  0.5068066  0.7457193

 Al 
  0.2649757  0.7819539  0.5038525

 Al 
  0.4885030  0.5007388  0.9796990

 Al 
  0.5024689  0.7461277  0.2501733

 Al 
  0.7382432  0.4844971  0.2269838

 Al 
  0.7454309  0.7461314  0.9932021

 Al 
  0.5223615  0.9967143  0.4993082

 Al 
  0.4913717  0.2535233  0.7304378

 Al 
  0.7533229  0.9910524  0.7434954

 Al 
  0.7637085  0.2467477  0.4906502

 Al 
  0.5088659  0.4988911  0.4975075

 Al 
  0.4901007  0.7464333  0.7473083

 Al 
  0.7500198  0.5111158  0.7388644

 Al 
  0.7652492  0.7434050  0.4990817

