32 
charge = 0 
 Al 
  0.9994530  0.9824897  0.0142938

 Al 
  0.0023910  0.2586939  0.2357717

 Al 
  0.2435857  0.9891107  0.2356542

 Al 
  0.2529726  0.2523959  0.9922652

 Al 
  0.4933320  0.0178159  0.9919620

 Al 
  0.4892864  0.2653495  0.2673865

 Al 
  0.7405623  0.9869165  0.2521979

 Al 
  0.7399906  0.2443109  0.9890575

 Al 
  0.0068363  0.4998923  0.9956623

 Al 
  0.0107309  0.7298946  0.2627308

 Al 
  0.2514739  0.5073746  0.2704247

 Al 
  0.2513712  0.7536434  0.0072707

 Al 
  0.0131244  0.0062918  0.4949916

 Al 
  0.9681588  0.2456648  0.7718244

 Al 
  0.2567905  0.9992958  0.7683852

 Al 
  0.2421625  0.2389770  0.5257425

 Al 
  0.0052881  0.5082162  0.5200658

 Al 
  0.9979011  0.7593572  0.7588746

 Al 
  0.2508836  0.5066358  0.7438555

 Al 
  0.2649027  0.7793822  0.5044255

 Al 
  0.4874152  0.4997129  0.9810789

 Al 
  0.5045617  0.7493552  0.2500173

 Al 
  0.7395537  0.4813512  0.2255693

 Al 
  0.7455423  0.7465596  0.9958740

 Al 
  0.5222353  0.9975818  0.4999517

 Al 
  0.4900574  0.2531187  0.7276966

 Al 
  0.7491708  0.9920016  0.7455336

 Al 
  0.7631392  0.2478281  0.4902319

 Al 
  0.5088486  0.5000941  0.4981993

 Al 
  0.4917640  0.7471165  0.7476276

 Al 
  0.7510754  0.5107816  0.7383001

 Al 
  0.7654423  0.7427912  0.4970769

