32 
charge = 0 
 Al 
  0.0007846  0.9832038  0.0139882

 Al 
  0.0027424  0.2585120  0.2355849

 Al 
  0.2432862  0.9898829  0.2349129

 Al 
  0.2534355  0.2522128  0.9919967

 Al 
  0.4925004  0.0166316  0.9909930

 Al 
  0.4875625  0.2649584  0.2677293

 Al 
  0.7407245  0.9864784  0.2516125

 Al 
  0.7411378  0.2438072  0.9887332

 Al 
  0.0078226  0.5007809  0.9975868

 Al 
  0.0099042  0.7296941  0.2629164

 Al 
  0.2512499  0.5077744  0.2703406

 Al 
  0.2513477  0.7544268  0.0074897

 Al 
  0.0151193  0.0056693  0.4959532

 Al 
  0.9681031  0.2461920  0.7710348

 Al 
  0.2567262  0.9989345  0.7678333

 Al 
  0.2415858  0.2390995  0.5255223

 Al 
  0.0043141  0.5084179  0.5208628

 Al 
  0.9976882  0.7591580  0.7594005

 Al 
  0.2498465  0.5067014  0.7446067

 Al 
  0.2649597  0.7805034  0.5042040

 Al 
  0.4878249  0.5001374  0.9804651

 Al 
  0.5037350  0.7480595  0.2500965

 Al 
  0.7389894  0.4825590  0.2261051

 Al 
  0.7455015  0.7463801  0.9947874

 Al 
  0.5223578  0.9972204  0.4996906

 Al 
  0.4905067  0.2532795  0.7287325

 Al 
  0.7508651  0.9916180  0.7446896

 Al 
  0.7633781  0.2473801  0.4903903

 Al 
  0.5088758  0.4995532  0.4979098

 Al 
  0.4910475  0.7468083  0.7474729

 Al 
  0.7506720  0.5109574  0.7384585

 Al 
  0.7654027  0.7430115  0.4979011

