32 
charge = 0 
 Al 
  0.9882469  0.9790963  0.0157430

 Al 
  0.0002562  0.2584884  0.2386862

 Al 
  0.2477724  0.9861752  0.2435684

 Al 
  0.2483268  0.2544886  0.9953752

 Al 
  0.5007933  0.0237587  0.0007005

 Al 
  0.5009826  0.2647159  0.2625303

 Al 
  0.7419435  0.9919806  0.2550567

 Al 
  0.7297448  0.2480855  0.9930090

 Al 
  0.9985867  0.4947008  0.9814539

 Al 
  0.0145042  0.7331679  0.2601282

 Al 
  0.2543018  0.5032288  0.2697280

 Al 
  0.2522276  0.7459940  0.0046013

 Al 
  0.9964321  0.0098126  0.4885884

 Al 
  0.9735025  0.2410153  0.7740706

 Al 
  0.2550715  0.0016422  0.7704977

 Al 
  0.2451153  0.2393334  0.5237018

 Al 
  0.0129647  0.5045703  0.5125811

 Al 
  0.0006287  0.7604648  0.7538946

 Al 
  0.2581147  0.5063004  0.7385563

 Al 
  0.2634907  0.7686624  0.5060047

 Al 
  0.4857705  0.4963306  0.9877432

 Al 
  0.5098040  0.7582360  0.2487798

 Al 
  0.7452750  0.4757165  0.2231857

 Al 
  0.7455992  0.7477254  0.0040159

 Al 
  0.5183432  0.0003997  0.5017908

 Al 
  0.4903124  0.2521831  0.7234048

 Al 
  0.7364066  0.9948332  0.7524368

 Al 
  0.7610762  0.2519034  0.4898408

 Al 
  0.5080516  0.5060752  0.5002574

 Al 
  0.4987166  0.7506472  0.7498911

 Al 
  0.7532139  0.5081258  0.7395463

 Al 
  0.7644226  0.7421415  0.4906292

