32 
charge = 0 
 Al 
  0.9933097  0.9801532  0.0152530

 Al 
  0.0010544  0.2588993  0.2371492

 Al 
  0.2455819  0.9868546  0.2396886

 Al 
  0.2505866  0.2534602  0.9937528

 Al 
  0.4974271  0.0217972  0.9965781

 Al 
  0.4961796  0.2657170  0.2650896

 Al 
  0.7408148  0.9893718  0.2541025

 Al 
  0.7344414  0.2464173  0.9910549

 Al 
  0.0023576  0.4966388  0.9875613

 Al 
  0.0133521  0.7314143  0.2615440

 Al 
  0.2528043  0.5053091  0.2703542

 Al 
  0.2517400  0.7496522  0.0059539

 Al 
  0.0040134  0.0085157  0.4911947

 Al 
  0.9702502  0.2432689  0.7738416

 Al 
  0.2562386  0.0007091  0.7699520

 Al 
  0.2441599  0.2389783  0.5254232

 Al 
  0.0095923  0.5066024  0.5161415

 Al 
  0.9992562  0.7600428  0.7562992

 Al 
  0.2550691  0.5064180  0.7407826

 Al 
  0.2643000  0.7737501  0.5053030

 Al 
  0.4861690  0.4978318  0.9844166

 Al 
  0.5077298  0.7545703  0.2494480

 Al 
  0.7424459  0.4773662  0.2238639

 Al 
  0.7456314  0.7473021  0.0004752

 Al 
  0.5206747  0.9991795  0.5010297

 Al 
  0.4894238  0.2525110  0.7245087

 Al 
  0.7419299  0.9936018  0.7493218

 Al 
  0.7620378  0.2499418  0.4897963

 Al 
  0.5084897  0.5030890  0.4994320

 Al 
  0.4953641  0.7488614  0.7486721

 Al 
  0.7524553  0.5095416  0.7385414

 Al 
  0.7651205  0.7422331  0.4934731

