32 
charge = 0 
 Al 
  0.9899300  0.9793674  0.0156020

 Al 
  0.0004901  0.2586766  0.2381442

 Al 
  0.2469952  0.9862952  0.2422269

 Al 
  0.2491090  0.2541372  0.9947874

 Al 
  0.4996956  0.0232266  0.9992859

 Al 
  0.4994567  0.2651651  0.2634399

 Al 
  0.7414880  0.9910475  0.2547869

 Al 
  0.7313041  0.2475261  0.9923444

 Al 
  0.9998577  0.4952799  0.9834427

 Al 
  0.0142047  0.7325429  0.2606480

 Al 
  0.2537597  0.5039676  0.2700002

 Al 
  0.2520544  0.7472452  0.0050728

 Al 
  0.9989716  0.0094265  0.4894089

 Al 
  0.9722947  0.2418135  0.7741213

 Al 
  0.2555195  0.0013527  0.7703728

 Al 
  0.2448629  0.2391948  0.5244221

 Al 
  0.0118608  0.5053141  0.5138038

 Al 
  0.0001559  0.7603324  0.7547324

 Al 
  0.2571271  0.5063363  0.7392703

 Al 
  0.2637877  0.7703987  0.5057658

 Al 
  0.4858423  0.4968269  0.9865762

 Al 
  0.5091580  0.7570677  0.2490211

 Al 
  0.7442812  0.4761039  0.2233417

 Al 
  0.7456215  0.7476103  0.0028526

 Al 
  0.5192218  0.0000050  0.5015507

 Al 
  0.4898842  0.2522722  0.7236325

 Al 
  0.7382073  0.9944248  0.7513972

 Al 
  0.7614079  0.2512165  0.4897802

 Al 
  0.5082038  0.5050332  0.5000062

 Al 
  0.4975583  0.7500198  0.7494505

 Al 
  0.7529949  0.5086332  0.7391478

 Al 
  0.7646923  0.7421427  0.4915660

