32 
charge = 0 
 Al 
  0.9821878  0.9789169  0.0160363

 Al 
  0.9997649  0.2573400  0.2408903

 Al 
  0.2510371  0.9867445  0.2489320

 Al 
  0.2451859  0.2558165  0.9980979

 Al 
  0.5043080  0.0244815  0.0063586

 Al 
  0.5058933  0.2620167  0.2587632

 Al 
  0.7442367  0.9961054  0.2556618

 Al 
  0.7243354  0.2502772  0.9953827

 Al 
  0.9937713  0.4932033  0.9746139

 Al 
  0.0149102  0.7357705  0.2577348

 Al 
  0.2567373  0.5000223  0.2679843

 Al 
  0.2528947  0.7411279  0.0027164

 Al 
  0.9869623  0.0107717  0.4860935

 Al 
  0.9789676  0.2374647  0.7726907

 Al 
  0.2529367  0.0025234  0.7705089

 Al 
  0.2454619  0.2399498  0.5195820

 Al 
  0.0167479  0.5012017  0.5077137

 Al 
  0.0024281  0.7608794  0.7503626

 Al 
  0.2615526  0.5061507  0.7362296

 Al 
  0.2621479  0.7618967  0.5069526

 Al 
  0.4861257  0.4945671  0.9926415

 Al 
  0.5117581  0.7620254  0.2477526

 Al 
  0.7494691  0.4760123  0.2233726

 Al 
  0.7453777  0.7478182  0.0081580

 Al 
  0.5141342  0.0017202  0.5025048

 Al 
  0.4931093  0.2521373  0.7238862

 Al 
  0.7302299  0.9964036  0.7562633

 Al 
  0.7596505  0.2548562  0.4906119

 Al 
  0.5075504  0.5103126  0.5008787

 Al 
  0.5033773  0.7532028  0.7518266

 Al 
  0.7536706  0.5059292  0.7414720

 Al 
  0.7630810  0.7423581  0.4873249

