32 
charge = 0 
 Al 
  0.9803487  0.9792213  0.0160215

 Al 
  0.9997748  0.2567930  0.2416588

 Al 
  0.2522264  0.9873434  0.2508230

 Al 
  0.2440770  0.2562336  0.9992290

 Al 
  0.5051111  0.0241572  0.0083672

 Al 
  0.5071779  0.2607532  0.2574477

 Al 
  0.7451673  0.9977315  0.2557151

 Al 
  0.7228553  0.2510655  0.9960435

 Al 
  0.9921910  0.4929818  0.9726437

 Al 
  0.0147901  0.7366987  0.2567596

 Al 
  0.2577100  0.4987822  0.2670709

 Al 
  0.2530902  0.7394782  0.0020742

 Al 
  0.9839005  0.0108831  0.4855539

 Al 
  0.9810913  0.2360279  0.7717415

 Al 
  0.2520742  0.0027350  0.7703579

 Al 
  0.2453641  0.2401614  0.5176377

 Al 
  0.0178011  0.4998639  0.5059898

 Al 
  0.0029986  0.7609821  0.7490087

 Al 
  0.2625848  0.5060678  0.7356381

 Al 
  0.2616170  0.7595824  0.5072769

 Al 
  0.4865130  0.4940510  0.9944693

 Al 
  0.5122048  0.7630167  0.2473813

 Al 
  0.7510445  0.4768724  0.2237983

 Al 
  0.7452341  0.7476808  0.0094265

 Al 
  0.5123855  0.0020803  0.5026533

 Al 
  0.4944829  0.2522722  0.7245755

 Al 
  0.7284751  0.9969704  0.7574774

 Al 
  0.7590689  0.2560232  0.4911143

 Al 
  0.5074588  0.5118101  0.5009170

 Al 
  0.5050332  0.7540914  0.7525778

 Al 
  0.7536434  0.5050901  0.7422182

 Al 
  0.7625056  0.7424979  0.4863348

