32 
charge = 0 
 Al 
  0.9809316  0.9790976  0.0160351

 Al 
  0.9997599  0.2569811  0.2414076

 Al 
  0.2518353  0.9871232  0.2502017

 Al 
  0.2444396  0.2561012  0.9988466

 Al 
  0.5048785  0.0243008  0.0077075

 Al 
  0.5067831  0.2611851  0.2578758

 Al 
  0.7448579  0.9971870  0.2557064

 Al 
  0.7233095  0.2508044  0.9958393

 Al 
  0.9927009  0.4930362  0.9732625

 Al 
  0.0148433  0.7363942  0.2570875

 Al 
  0.2573833  0.4991956  0.2673902

 Al 
  0.2530296  0.7400153  0.0022821

 Al 
  0.9848869  0.0108608  0.4857086

 Al 
  0.9803834  0.2365118  0.7720818

 Al 
  0.2523625  0.0026707  0.7704161

 Al 
  0.2454074  0.2400933  0.5183060

 Al 
  0.0174744  0.5003119  0.5065566

 Al 
  0.0028167  0.7609512  0.7494617

 Al 
  0.2622568  0.5060987  0.7358175

 Al 
  0.2617952  0.7603374  0.5071717

 Al 
  0.4863695  0.4942132  0.9938629

 Al 
  0.5120737  0.7627135  0.2475038

 Al 
  0.7505223  0.4765420  0.2236337

 Al 
  0.7452861  0.7477365  0.0090218

 Al 
  0.5129746  0.0019690  0.5026113

 Al 
  0.4940102  0.2522165  0.7243193

 Al 
  0.7290233  0.9967823  0.7570875

 Al 
  0.7592669  0.2556309  0.4909336

 Al 
  0.5074823  0.5113200  0.5009170

 Al 
  0.5044899  0.7538030  0.7523266

 Al 
  0.7536657  0.5053698  0.7419719

 Al 
  0.7627011  0.7424496  0.4866479

