32 
charge = 0 
 Al 
  0.9850366  0.9788228  0.0159472

 Al 
  0.9999171  0.2579823  0.2398012

 Al 
  0.2493998  0.9862581  0.2462861

 Al 
  0.2467378  0.2551817  0.9966734

 Al 
  0.5027709  0.0244097  0.0035605

 Al 
  0.5037003  0.2635191  0.2606344

 Al 
  0.7430251  0.9939867  0.2554502

 Al 
  0.7268167  0.2491956  0.9942837

 Al 
  0.9960930  0.4937825  0.9777684

 Al 
  0.0148569  0.7344735  0.2589822

 Al 
  0.2554799  0.5016596  0.2689842

 Al 
  0.2525766  0.7434991  0.0036409

 Al 
  0.9914992  0.0104129  0.4871628

 Al 
  0.9761584  0.2393013  0.7736053

 Al 
  0.2540518  0.0021410  0.7705906

 Al 
  0.2454148  0.2396416  0.5218640

 Al 
  0.0150141  0.5029417  0.5101158

 Al 
  0.0015655  0.7606963  0.7521509

 Al 
  0.2599512  0.5062311  0.7372680

 Al 
  0.2628409  0.7651997  0.5064861

 Al 
  0.4858200  0.4953901  0.9901750

 Al 
  0.5109165  0.7603287  0.2482699

 Al 
  0.7473516  0.4754913  0.2231102

 Al 
  0.7455163  0.7478516  0.0062126

 Al 
  0.5163482  0.0011225  0.5022029

 Al 
  0.4915215  0.2520915  0.7233776

 Al 
  0.7330701  0.9956326  0.7544428

 Al 
  0.7603831  0.2533464  0.4901205

 Al 
  0.5077669  0.5082137  0.5006547

 Al 
  0.5010705  0.7519380  0.7508378

 Al 
  0.7535332  0.5070467  0.7404695

 Al 
  0.7637939  0.7422120  0.4888681

