32 
charge = 0 
 Al 
  0.9842842  0.9788117  0.0159806

 Al 
  0.9998602  0.2578325  0.2400797

 Al 
  0.2498119  0.9863435  0.2469581

 Al 
  0.2463442  0.2553475  0.9970199

 Al 
  0.5032016  0.0244827  0.0042696

 Al 
  0.5043005  0.2631677  0.2601592

 Al 
  0.7433209  0.9945089  0.2555195

 Al 
  0.7261472  0.2494691  0.9945782

 Al 
  0.9954928  0.4936055  0.9769256

 Al 
  0.0148953  0.7348015  0.2586778

 Al 
  0.2557881  0.5012537  0.2687577

 Al 
  0.2526608  0.7428902  0.0034045

 Al 
  0.9903210  0.0105267  0.4868596

 Al 
  0.9768526  0.2388508  0.7734159

 Al 
  0.2537795  0.0022487  0.7705856

 Al 
  0.2454482  0.2397196  0.5213306

 Al 
  0.0154807  0.5025135  0.5095070

 Al 
  0.0017908  0.7607470  0.7517066

 Al 
  0.2603757  0.5062138  0.7369821

 Al 
  0.2626702  0.7643532  0.5066049

 Al 
  0.4858732  0.4951710  0.9907925

 Al 
  0.5111529  0.7607928  0.2481399

 Al 
  0.7478801  0.4755520  0.2231437

 Al 
  0.7454878  0.7478590  0.0067249

 Al 
  0.5158111  0.0012846  0.5022895

 Al 
  0.4918865  0.2520890  0.7234580

 Al 
  0.7323090  0.9958282  0.7549181

 Al 
  0.7602037  0.2537189  0.4902233

 Al 
  0.5077051  0.5087459  0.5007277

 Al 
  0.5016559  0.7522610  0.7510829

 Al 
  0.7535852  0.5067682  0.7407170

 Al 
  0.7636231  0.7422430  0.4884597

