32 
charge = 0 
 Al 
  0.9763972  0.9812720  0.0154572

 Al 
  0.0003490  0.2548970  0.2436600

 Al 
  0.2554614  0.9901713  0.2560319

 Al 
  0.2410747  0.2571395  0.0029145

 Al 
  0.5056420  0.0212947  0.0138855

 Al 
  0.5094141  0.2565244  0.2542349

 Al 
  0.7477650  0.0027932  0.2554478

 Al 
  0.7205559  0.2533922  0.9970732

 Al 
  0.9883570  0.4932454  0.9686736

 Al 
  0.0138644  0.7391763  0.2536384

 Al 
  0.2607581  0.4950795  0.2634907

 Al 
  0.2533946  0.7352210  0.0004616

 Al 
  0.9764752  0.0104673  0.4853435

 Al 
  0.9873843  0.2314489  0.7676390

 Al 
  0.2494852  0.0030580  0.7695436

 Al 
  0.2446686  0.2406106  0.5108373

 Al 
  0.0196438  0.4957700  0.5011658

 Al 
  0.0042275  0.7611220  0.7448332

 Al 
  0.2649126  0.5055666  0.7348646

 Al 
  0.2599735  0.7534726  0.5080070

 Al 
  0.4884313  0.4930833  0.9998354

 Al 
  0.5126603  0.7646181  0.2464420

 Al 
  0.7556680  0.4816482  0.2263329

 Al 
  0.7445919  0.7467341  0.0122915

 Al 
  0.5068091  0.0027400  0.5027412

 Al 
  0.4992030  0.2532239  0.7279726

 Al 
  0.7251139  0.9987525  0.7603572

 Al 
  0.7570504  0.2597854  0.4932553

 Al 
  0.5076667  0.5157975  0.5003131

 Al 
  0.5095738  0.7563128  0.7548710

 Al 
  0.7528489  0.5025865  0.7442033

 Al 
  0.7605799  0.7429966  0.4841802

