32 
charge = 0 
 Al 
  0.9760940  0.9816049  0.0153371

 Al 
  0.0004542  0.2546619  0.2438580

 Al 
  0.2557868  0.9905722  0.2565826

 Al 
  0.2407690  0.2572051  0.0033538

 Al 
  0.5055307  0.0208034  0.0144572

 Al 
  0.5095354  0.2560245  0.2539565

 Al 
  0.7480199  0.0033823  0.2553834

 Al 
  0.7205027  0.2536533  0.9971004

 Al 
  0.9880130  0.4933469  0.9683964

 Al 
  0.0137246  0.7394275  0.2532672

 Al 
  0.2611133  0.4946686  0.2630093

 Al 
  0.2533983  0.7348040  0.0003106

 Al 
  0.9757995  0.0103547  0.4854574

 Al 
  0.9880823  0.2309143  0.7670635

 Al 
  0.2492018  0.0030716  0.7694211

 Al 
  0.2445733  0.2406403  0.5099933

 Al 
  0.0197267  0.4953047  0.5006472

 Al 
  0.0043141  0.7611207  0.7443468

 Al 
  0.2651106  0.5054725  0.7348708

 Al 
  0.2597829  0.7528575  0.5080578

 Al 
  0.4887159  0.4930313  0.0004307

 Al 
  0.5126306  0.7646763  0.2463591

 Al 
  0.7561779  0.4823709  0.2267437

 Al 
  0.7445027  0.7465843  0.0125303

 Al 
  0.5061556  0.0027808  0.5027251

 Al 
  0.4997661  0.2533835  0.7284652

 Al 
  0.7249084  0.9989703  0.7606146

 Al 
  0.7567880  0.2602384  0.4935511

 Al 
  0.5077410  0.5161947  0.5001757

 Al 
  0.5100441  0.7565133  0.7551334

 Al 
  0.7526917  0.5023068  0.7443901

 Al 
  0.7603448  0.7430573  0.4840095

