32 
charge = 0 
 Al 
  0.9778736  0.9801520  0.0158136

 Al 
  0.0000025  0.2557856  0.2428234

 Al 
  0.2540914  0.9887357  0.2537857

 Al 
  0.2423506  0.2568029  0.0012202

 Al 
  0.5057510  0.0229135  0.0115217

 Al 
  0.5086926  0.2584699  0.2555121

 Al 
  0.7466660  0.0005000  0.2556396

 Al 
  0.7211759  0.2523563  0.9967922

 Al 
  0.9898953  0.4929744  0.9700968

 Al 
  0.0143607  0.7381293  0.2550678

 Al 
  0.2593745  0.4967205  0.2652443

 Al 
  0.2533167  0.7369945  0.0011200

 Al 
  0.9794651  0.0107854  0.4851703

 Al 
  0.9845973  0.2335342  0.7696958

 Al 
  0.2506299  0.0029652  0.7699681

 Al 
  0.2450275  0.2404497  0.5140327

 Al 
  0.0190671  0.4976078  0.5032610

 Al 
  0.0037770  0.7610910  0.7467242

 Al 
  0.2640067  0.5058537  0.7350243

 Al 
  0.2607148  0.7560492  0.5077360

 Al 
  0.4874387  0.4934038  0.9974618

 Al 
  0.5126182  0.7641503  0.2468219

 Al 
  0.7536273  0.4791359  0.2249604

 Al 
  0.7449149  0.7472489  0.0111839

 Al 
  0.5093510  0.0025160  0.5027598

 Al 
  0.4970175  0.2526954  0.7262314

 Al 
  0.7262648  0.9979296  0.7592075

 Al 
  0.7580120  0.2580503  0.4921885

 Al 
  0.5074774  0.5141181  0.5007190

 Al 
  0.5076308  0.7554143  0.7538389

 Al 
  0.7533377  0.5036991  0.7433828

 Al 
  0.7614759  0.7427652  0.4849958

