32 
charge = 0 
 Al 
  0.9758168  0.9819588  0.0152047

 Al 
  0.0005668  0.2544218  0.2440510

 Al 
  0.2561037  0.9909905  0.2571296

 Al 
  0.2404683  0.2572645  0.0037981

 Al 
  0.5053846  0.0202750  0.0150215

 Al 
  0.5096344  0.2555195  0.2536954

 Al 
  0.7482674  0.0039775  0.2553116

 Al 
  0.7204903  0.2539169  0.9971115

 Al 
  0.9876850  0.4934620  0.9681501

 Al 
  0.0135785  0.7396738  0.2528897

 Al 
  0.2614734  0.4942589  0.2625105

 Al 
  0.2533971  0.7343968  0.0001658

 Al 
  0.9751510  0.0102297  0.4855985

 Al 
  0.9887815  0.2303747  0.7664621

 Al 
  0.2489196  0.0030803  0.7692911

 Al 
  0.2444780  0.2406675  0.5091320

 Al 
  0.0197861  0.4948357  0.5001299

 Al 
  0.0043884  0.7611170  0.7438543

 Al 
  0.2653000  0.5053673  0.7348955

 Al 
  0.2595911  0.7522511  0.5081011

 Al 
  0.4890154  0.4929904  0.0010284

 Al 
  0.5125848  0.7647121  0.2462811

 Al 
  0.7566890  0.4831308  0.2271818

 Al 
  0.7444112  0.7464259  0.0127531

 Al 
  0.5054948  0.0028167  0.5027053

 Al 
  0.5003341  0.2535555  0.7289812

 Al 
  0.7247364  0.9991956  0.7608621

 Al 
  0.7565170  0.2607012  0.4938580

 Al 
  0.5078251  0.5165821  0.5000223

 Al 
  0.5105069  0.7567039  0.7553995

 Al 
  0.7525197  0.5020259  0.7445683

 Al 
  0.7601047  0.7431179  0.4838510

