32 
charge = 0 
 Al 
  0.9774640  0.9804007  0.0157418

 Al 
  0.0000767  0.2555703  0.2430399

 Al 
  0.2544441  0.9890686  0.2543562

 Al 
  0.2420239  0.2568969  0.0016348

 Al 
  0.5057757  0.0225620  0.0121256

 Al 
  0.5089104  0.2579922  0.2551693

 Al 
  0.7469506  0.0010643  0.2556012

 Al 
  0.7209606  0.2526137  0.9968888

 Al 
  0.9894869  0.4930214  0.9696921

 Al 
  0.0142468  0.7383979  0.2547176

 Al 
  0.2597149  0.4963096  0.2648309

 Al 
  0.2533439  0.7365341  0.0009467

 Al 
  0.9786731  0.0107260  0.4851728

 Al 
  0.9852940  0.2330206  0.7692169

 Al 
  0.2503416  0.0029949  0.7698715

 Al 
  0.2449421  0.2404955  0.5132605

 Al 
  0.0192478  0.4971511  0.5027313

 Al 
  0.0039045  0.7611034  0.7462576

 Al 
  0.2642505  0.5057930  0.7349562

 Al 
  0.2605317  0.7553871  0.5078127

 Al 
  0.4876652  0.4933073  0.9980546

 Al 
  0.5126516  0.7643025  0.2467205

 Al 
  0.7541384  0.4797065  0.2252648

 Al 
  0.7448394  0.7471338  0.0114846

 Al 
  0.5087261  0.0025816  0.5027635

 Al 
  0.4975521  0.2528117  0.7266323

 Al 
  0.7259269  0.9981288  0.7595131

 Al 
  0.7577830  0.2584736  0.4924373

 Al 
  0.5075095  0.5145513  0.5006386

 Al 
  0.5081271  0.7556519  0.7540939

 Al 
  0.7532362  0.5034219  0.7435981

 Al 
  0.7612581  0.7428221  0.4847718

