32 
charge = 0 
 Al 
  0.9751386  0.9831518  0.0147208

 Al 
  0.0009393  0.2536718  0.2446092

 Al 
  0.2570058  0.9923407  0.2587558

 Al 
  0.2395983  0.2573981  0.0051668

 Al 
  0.5047498  0.0184768  0.0166650

 Al 
  0.5098040  0.2539763  0.2530209

 Al 
  0.7489493  0.0058128  0.2550592

 Al 
  0.7207007  0.2547176  0.9970472

 Al 
  0.9867964  0.4938728  0.9675932

 Al 
  0.0131083  0.7403965  0.2517140

 Al 
  0.2625786  0.4930338  0.2609054

 Al 
  0.2533538  0.7332335  0.9997649

 Al 
  0.9733677  0.0097730  0.4861975

 Al 
  0.9908940  0.2287350  0.7645018

 Al 
  0.2480904  0.0030815  0.7688605

 Al 
  0.2441995  0.2407232  0.5064403

 Al 
  0.0198159  0.4934100  0.4985793

 Al 
  0.0045419  0.7610799  0.7423321

 Al 
  0.2658086  0.5049800  0.7350824

 Al 
  0.2590020  0.7504876  0.5081803

 Al 
  0.4900067  0.4929348  0.0028353

 Al 
  0.5123459  0.7646824  0.2460831

 Al 
  0.7582248  0.4856294  0.2286793

 Al 
  0.7441241  0.7459086  0.0133323

 Al 
  0.5034615  0.0028934  0.5026273

 Al 
  0.5020630  0.2541384  0.7306656

 Al 
  0.7244208  0.9999158  0.7615366

 Al 
  0.7556420  0.2621467  0.4948468

 Al 
  0.5081419  0.5176922  0.4994753

 Al 
  0.5118571  0.7572150  0.7562101

 Al 
  0.7519157  0.5011806  0.7450559

 Al 
  0.7593510  0.7433097  0.4834526

