32 
charge = 0 
 Al 
  0.9744617  0.9872432  0.0127531

 Al 
  0.0020556  0.2514616  0.2459185

 Al 
  0.2589377  0.9965051  0.2629239

 Al 
  0.2375761  0.2573672  0.0089426

 Al 
  0.5016682  0.0122024  0.0205671

 Al 
  0.5094438  0.2497958  0.2521100

 Al 
  0.7502203  0.0109970  0.2541322

 Al 
  0.7231362  0.2568796  0.9962786

 Al 
  0.9852049  0.4953666  0.9674100

 Al 
  0.0116999  0.7422133  0.2482674

 Al 
  0.2656477  0.4899163  0.2559242

 Al 
  0.2529615  0.7306024  0.9989456

 Al 
  0.9698146  0.0079674  0.4890909

 Al 
  0.9965819  0.2243985  0.7581778

 Al 
  0.2461264  0.0029046  0.7673766

 Al 
  0.2436748  0.2407492  0.4986214

 Al 
  0.0187887  0.4895500  0.4944421

 Al 
  0.0043216  0.7607507  0.7379820

 Al 
  0.2667727  0.5032696  0.7364190

 Al 
  0.2573412  0.7461821  0.5079154

 Al 
  0.4933345  0.4933172  0.0077125

 Al 
  0.5109314  0.7636070  0.2459074

 Al 
  0.7623311  0.4936835  0.2340515

 Al 
  0.7433568  0.7443369  0.0141639

 Al 
  0.4977996  0.0029095  0.5024207

 Al 
  0.5066098  0.2561767  0.7360947

 Al 
  0.7250520  0.0022004  0.7628533

 Al 
  0.7528229  0.2663556  0.4978912

 Al 
  0.5094278  0.5201636  0.4973652

 Al 
  0.5150859  0.7580380  0.7584464

 Al 
  0.7496943  0.4989716  0.7459482

 Al 
  0.7571172  0.7439174  0.4829476

