32 
charge = 0 
 Al 
  0.9744753  0.9861059  0.0133384

 Al 
  0.0017771  0.2520358  0.2456178

 Al 
  0.2585355  0.9954086  0.2619190

 Al 
  0.2380303  0.2574353  0.0080033

 Al 
  0.5026137  0.0139510  0.0196797

 Al 
  0.5096332  0.2508304  0.2522090

 Al 
  0.7499901  0.0096753  0.2543933

 Al 
  0.7222712  0.2563462  0.9965361

 Al 
  0.9854883  0.4949532  0.9672813

 Al 
  0.0120650  0.7417739  0.2491646

 Al 
  0.2648767  0.4906564  0.2572447

 Al 
  0.2530964  0.7311866  0.9991164

 Al 
  0.9705324  0.0084946  0.4881986

 Al 
  0.9951673  0.2254455  0.7598918

 Al 
  0.2465633  0.0029763  0.7677924

 Al 
  0.2437590  0.2407529  0.5006324

 Al 
  0.0191958  0.4905079  0.4954693

 Al 
  0.0044713  0.7608732  0.7390971

 Al 
  0.2665846  0.5037993  0.7359735

 Al 
  0.2577657  0.7471982  0.5080565

 Al 
  0.4924137  0.4931476  0.0065009

 Al 
  0.5113930  0.7640092  0.2458925

 Al 
  0.7613126  0.4915177  0.2325231

 Al 
  0.7435374  0.7447391  0.0140599

 Al 
  0.4992253  0.0029281  0.5024566

 Al 
  0.5055146  0.2556086  0.7346258

 Al 
  0.7246943  0.0015791  0.7625934

 Al 
  0.7535914  0.2652728  0.4970893

 Al 
  0.5090540  0.5196253  0.4979753

 Al 
  0.5143446  0.7579142  0.7578857

 Al 
  0.7503230  0.4995037  0.7457849

 Al 
  0.7577014  0.7437478  0.4829959

