32 
charge = 0 
 Al 
  0.9748144  0.9840540  0.0143235

 Al 
  0.0012103  0.2531446  0.2449619

 Al 
  0.2575615  0.9933147  0.2598262

 Al 
  0.2390476  0.2574477  0.0061049

 Al 
  0.5041619  0.0171019  0.0177169

 Al 
  0.5098188  0.2529305  0.2526669

 Al 
  0.7493490  0.0070751  0.2548599

 Al 
  0.7210534  0.2552596  0.9969296

 Al 
  0.9862890  0.4941995  0.9673717

 Al 
  0.0127741  0.7408643  0.2508935

 Al 
  0.2633347  0.4922256  0.2597470

 Al 
  0.2532932  0.7325071  0.9995260

 Al 
  0.9723133  0.0094005  0.4867457

 Al 
  0.9923147  0.2276298  0.7630649

 Al 
  0.2475558  0.0030642  0.7685350

 Al 
  0.2440288  0.2407443  0.5045592

 Al 
  0.0197107  0.4924472  0.4975434

 Al 
  0.0045777  0.7610341  0.7412801

 Al 
  0.2661019  0.5046508  0.7353027

 Al 
  0.2585973  0.7493552  0.5081852

 Al 
  0.4907467  0.4929570  0.0040530

 Al 
  0.5121009  0.7645488  0.2459853

 Al 
  0.7592545  0.4874709  0.2298327

 Al 
  0.7439273  0.7455336  0.0136404

 Al 
  0.5020692  0.0029206  0.5025679

 Al 
  0.5032251  0.2545839  0.7319019

 Al 
  0.7243763  0.0004356  0.7619338

 Al 
  0.7550047  0.2631578  0.4955584

 Al 
  0.5084055  0.5183828  0.4990347

 Al 
  0.5127221  0.7574984  0.7567633

 Al 
  0.7514405  0.5006151  0.7453381

 Al 
  0.7588213  0.7434459  0.4832496

