32 
charge = 0 
 Al 
  0.9750099  0.9909658  0.0106802

 Al 
  0.0027523  0.2497253  0.2466747

 Al 
  0.2597112  0.9997909  0.2656279

 Al 
  0.2365044  0.2568759  0.0115180

 Al 
  0.4983182  0.0065393  0.0226858

 Al 
  0.5085738  0.2469011  0.2523353

 Al 
  0.7505198  0.0148681  0.2532981

 Al 
  0.7266670  0.2583325  0.9953950

 Al 
  0.9848584  0.4966512  0.9684285

 Al 
  0.0106096  0.7434570  0.2455572

 Al 
  0.2678159  0.4880192  0.2519157

 Al 
  0.2524405  0.7292263  0.9985607

 Al 
  0.9683865  0.0061556  0.4922628

 Al 
  0.0006287  0.2216920  0.7527462

 Al 
  0.2451822  0.0025692  0.7659844

 Al 
  0.2437058  0.2407480  0.4927194

 Al 
  0.0170388  0.4868794  0.4915128

 Al 
  0.0034627  0.7601728  0.7346790

 Al 
  0.2671204  0.5012722  0.7381244

 Al 
  0.2560801  0.7434607  0.5071667

 Al 
  0.4963517  0.4941092  0.0111504

 Al 
  0.5091592  0.7619338  0.2462514

 Al 
  0.7652332  0.5003985  0.2392010

 Al 
  0.7429422  0.7432367  0.0140327

 Al 
  0.4937305  0.0027870  0.5024751

 Al 
  0.5094500  0.2579860  0.7407282

 Al 
  0.7268403  0.0041953  0.7633261

 Al 
  0.7503428  0.2695102  0.5002970

 Al 
  0.5106505  0.5213616  0.4953047

 Al 
  0.5169212  0.7580442  0.7600416

 Al 
  0.7476536  0.4976078  0.7461945

 Al 
  0.7553388  0.7445275  0.4831221

