32 
charge = 0 
 Al 
  0.9745483  0.9884412  0.0121095

 Al 
  0.0023180  0.2508811  0.2461970

 Al 
  0.2592731  0.9976127  0.2638867

 Al 
  0.2371652  0.2572534  0.0098522

 Al 
  0.5006262  0.0103658  0.0213715

 Al 
  0.5091988  0.2487872  0.2521001

 Al 
  0.7503861  0.0123125  0.2538587

 Al 
  0.7241646  0.2573944  0.9959928

 Al 
  0.9850045  0.4957935  0.9676476

 Al 
  0.0113324  0.7426415  0.2473590

 Al 
  0.2664027  0.4892221  0.2545827

 Al 
  0.2528043  0.7300777  0.9987971

 Al 
  0.9692156  0.0073957  0.4900772

 Al 
  0.9979741  0.2234097  0.7564019

 Al 
  0.2457428  0.0028142  0.7669348

 Al 
  0.2436352  0.2407430  0.4966128

 Al 
  0.0182875  0.4886169  0.4934323

 Al 
  0.0041025  0.7605960  0.7368645

 Al 
  0.2669261  0.5026682  0.7369313

 Al 
  0.2569180  0.7452156  0.5077212

 Al 
  0.4943035  0.4935350  0.0089018

 Al 
  0.5104017  0.7631231  0.2459693

 Al 
  0.7633310  0.4959074  0.2356864

 Al 
  0.7431934  0.7439446  0.0141948

 Al 
  0.4963962  0.0028786  0.5024058

 Al 
  0.5076444  0.2567695  0.7376132

 Al 
  0.7255359  0.0028476  0.7630625

 Al 
  0.7520197  0.2674360  0.4987018

 Al 
  0.5098250  0.5206376  0.4967093

 Al 
  0.5157678  0.7581023  0.7589971

 Al 
  0.7490310  0.4984704  0.7460707

 Al 
  0.7565257  0.7441030  0.4829526

