32 
charge = 0 
 Al 
  0.9744926  0.9878348  0.0124387

 Al 
  0.0021892  0.2511720  0.2460608

 Al 
  0.2591146  0.9970583  0.2634115

 Al 
  0.2373645  0.2573165  0.0094018

 Al 
  0.5011584  0.0112940  0.0209804

 Al 
  0.5093275  0.2492872  0.2520940

 Al 
  0.7503119  0.0116566  0.2539973

 Al 
  0.7236313  0.2571395  0.9961388

 Al 
  0.9850948  0.4955794  0.9675152

 Al 
  0.0115155  0.7424286  0.2478145

 Al 
  0.2660277  0.4895624  0.2552547

 Al 
  0.2528848  0.7303327  0.9988689

 Al 
  0.9695003  0.0076865  0.4895735

 Al 
  0.9972823  0.2238961  0.7572967

 Al 
  0.2459272  0.0028625  0.7671588

 Al 
  0.2436488  0.2407455  0.4976152

 Al 
  0.0185498  0.4890797  0.4939347

 Al 
  0.0042201  0.7606777  0.7374227

 Al 
  0.2668544  0.5029776  0.7366677

 Al 
  0.2571296  0.7456920  0.5078251

 Al 
  0.4938134  0.4934211  0.0083115

 Al 
  0.5106752  0.7633756  0.2459321

 Al 
  0.7628335  0.4947899  0.2348559

 Al 
  0.7432726  0.7441389  0.0141899

 Al 
  0.4970942  0.0028959  0.5024095

 Al 
  0.5071358  0.2564700  0.7368484

 Al 
  0.7252785  0.0025209  0.7629635

 Al 
  0.7524244  0.2668977  0.4982959

 Al 
  0.5096245  0.5204099  0.4970422

 Al 
  0.5154349  0.7580776  0.7587236

 Al 
  0.7493664  0.4987166  0.7460150

 Al 
  0.7568227  0.7440077  0.4829439

