32 
charge = 0 
 Al 
  0.9746287  0.9890587  0.0117680

 Al 
  0.0024392  0.2505903  0.2463269

 Al 
  0.2594129  0.9981647  0.2643471

 Al 
  0.2369796  0.2571791  0.0102903

 Al 
  0.5000743  0.0094228  0.0217403

 Al 
  0.5090577  0.2482971  0.2521286

 Al 
  0.7504443  0.0129647  0.2537201

 Al 
  0.7247364  0.2576419  0.9958443

 Al 
  0.9849364  0.4960089  0.9678060

 Al 
  0.0111492  0.7428506  0.2469049

 Al 
  0.2667702  0.4888954  0.2539095

 Al 
  0.2527189  0.7298389  0.9987315

 Al 
  0.9689632  0.0070974  0.4906020

 Al 
  0.9986560  0.2229444  0.7554960

 Al 
  0.2455745  0.0027610  0.7667046

 Al 
  0.2436327  0.2407418  0.4956190

 Al 
  0.0180041  0.4881640  0.4929385

 Al 
  0.0039676  0.7605057  0.7363088

 Al 
  0.2669880  0.5023427  0.7372110

 Al 
  0.2567064  0.7447540  0.5076023

 Al 
  0.4948035  0.4936624  0.0094822

 Al 
  0.5101121  0.7628521  0.2460200

 Al 
  0.7638199  0.4970311  0.2365378

 Al 
  0.7431204  0.7437565  0.0141825

 Al 
  0.4957081  0.0028600  0.5024095

 Al 
  0.5081320  0.2570714  0.7383855

 Al 
  0.7258217  0.0031793  0.7631479

 Al 
  0.7516064  0.2679694  0.4991065

 Al 
  0.5100292  0.5208467  0.4963690

 Al 
  0.5160846  0.7581110  0.7592669

 Al 
  0.7486907  0.4982352  0.7461165

 Al 
  0.7562274  0.7442020  0.4829761

