32 
charge = 0 
 Al 
  0.9769207  0.9961970  0.0074996

 Al 
  0.0030778  0.2475373  0.2472736

 Al 
  0.2594810  0.0035555  0.2680610

 Al 
  0.2359128  0.2554478  0.0138619

 Al 
  0.4932738  0.9989840  0.0239159

 Al 
  0.5070355  0.2439075  0.2536050

 Al 
  0.7500644  0.0192899  0.2522573

 Al 
  0.7330528  0.2596381  0.9944471

 Al 
  0.9855564  0.4981894  0.9709594

 Al 
  0.0093275  0.7449421  0.2422801

 Al 
  0.2699458  0.4866219  0.2471895

 Al 
  0.2515952  0.7283748  0.9982451

 Al 
  0.9681377  0.0035122  0.4968615

 Al 
  0.0051371  0.2197688  0.7455770

 Al 
  0.2450757  0.0018143  0.7639213

 Al 
  0.2444829  0.2409918  0.4861269

 Al 
  0.0138718  0.4842260  0.4883236

 Al 
  0.0014455  0.7587731  0.7308599

 Al 
  0.2670586  0.4978726  0.7409262

 Al 
  0.2545171  0.7407381  0.5054502

 Al 
  0.5006819  0.4957094  0.0148446

 Al 
  0.5061643  0.7589129  0.2474618

 Al 
  0.7683951  0.5087533  0.2466314

 Al 
  0.7428296  0.7423519  0.0128830

 Al 
  0.4894448  0.0025234  0.5031583

 Al 
  0.5115922  0.2602037  0.7468133

 Al 
  0.7304106  0.0069118  0.7632691

 Al 
  0.7469643  0.2728207  0.5030568

 Al 
  0.5121244  0.5218034  0.4923989

 Al 
  0.5182392  0.7572237  0.7617284

 Al 
  0.7450671  0.4967403  0.7460522

 Al 
  0.7531125  0.7456623  0.4840602

