32 
charge = 0 
 Al 
  0.9775729  0.9974964  0.0066779

 Al 
  0.0030197  0.2470249  0.2473491

 Al 
  0.2591703  0.0043018  0.2684100

 Al 
  0.2359252  0.2549416  0.0141948

 Al 
  0.4919954  0.9972130  0.0239233

 Al 
  0.5066358  0.2433493  0.2540332

 Al 
  0.7498305  0.0202057  0.2520296

 Al 
  0.7348708  0.2598275  0.9943184

 Al 
  0.9859227  0.4985137  0.9717502

 Al 
  0.0090614  0.7453072  0.2415598

 Al 
  0.2702911  0.4865081  0.2462007

 Al 
  0.2513700  0.7283352  0.9981771

 Al 
  0.9683382  0.0028501  0.4979518

 Al 
  0.0060789  0.2196636  0.7438815

 Al 
  0.2452762  0.0015643  0.7633830

 Al 
  0.2448035  0.2411415  0.4848176

 Al 
  0.0130043  0.4837657  0.4876937

 Al 
  0.0008094  0.7582904  0.7300653

 Al 
  0.2669484  0.4969308  0.7416737

 Al 
  0.2541508  0.7402109  0.5049082

 Al 
  0.5017945  0.4961796  0.0155735

 Al 
  0.5053401  0.7580689  0.2478924

 Al 
  0.7690201  0.5106034  0.2484753

 Al 
  0.7428939  0.7422751  0.0124449

 Al 
  0.4886441  0.0024467  0.5034652

 Al 
  0.5117791  0.2606554  0.7482587

 Al 
  0.7314328  0.0075677  0.7631466

 Al 
  0.7461475  0.2734011  0.5036174

 Al 
  0.5124016  0.5216945  0.4916972

 Al 
  0.5183555  0.7568883  0.7620477

 Al 
  0.7445151  0.4967427  0.7459618

 Al 
  0.7526014  0.7460336  0.4844191

