32 
charge = 0 
 Al 
  0.9772388  0.9968479  0.0070900

 Al 
  0.0030555  0.2472798  0.2473145

 Al 
  0.2593386  0.0039404  0.2682491

 Al 
  0.2359116  0.2552027  0.0140414

 Al 
  0.4926340  0.9980917  0.0239345

 Al 
  0.5068351  0.2436191  0.2538154

 Al 
  0.7499530  0.0197577  0.2521410

 Al 
  0.7339525  0.2597396  0.9943753

 Al 
  0.9857309  0.4983553  0.9713480

 Al 
  0.0091914  0.7451240  0.2419150

 Al 
  0.2701290  0.4865526  0.2466846

 Al 
  0.2514826  0.7283476  0.9982117

 Al 
  0.9682256  0.0031805  0.4974123

 Al 
  0.0056173  0.2196958  0.7447243

 Al 
  0.2451648  0.0016917  0.7636540

 Al 
  0.2446376  0.2410611  0.4854549

 Al 
  0.0134412  0.4839859  0.4879994

 Al 
  0.0011336  0.7585392  0.7304539

 Al 
  0.2670091  0.4974061  0.7412975

 Al 
  0.2543327  0.7404683  0.5051841

 Al 
  0.5012363  0.4959420  0.0152195

 Al 
  0.5057559  0.7584934  0.2476709

 Al 
  0.7687157  0.5096914  0.2475558

 Al 
  0.7428568  0.7423061  0.0126702

 Al 
  0.4890315  0.0024863  0.5033043

 Al 
  0.5117036  0.2604364  0.7475397

 Al 
  0.7309168  0.0072410  0.7632122

 Al 
  0.7465546  0.2731239  0.5033439

 Al 
  0.5122692  0.5217601  0.4920449

 Al 
  0.5183085  0.7570615  0.7618930

 Al 
  0.7447849  0.4967304  0.7460089

 Al 
  0.7528551  0.7458430  0.4842335

