32 
charge = 0 
 Al 
  0.9779231  0.9981424  0.0062645

 Al 
  0.0029677  0.2467749  0.2473776

 Al 
  0.2589760  0.0046409  0.2685424

 Al 
  0.2359549  0.2546656  0.0143198

 Al 
  0.4913569  0.9963492  0.0238825

 Al 
  0.5064378  0.2430994  0.2542585

 Al 
  0.7496980  0.0206339  0.2519207

 Al 
  0.7358089  0.2599005  0.9942750

 Al 
  0.9861343  0.4986671  0.9721647

 Al 
  0.0089377  0.7454928  0.2412145

 Al 
  0.2704322  0.4864871  0.2457366

 Al 
  0.2512549  0.7283402  0.9981424

 Al 
  0.9684731  0.0025197  0.4984803

 Al 
  0.0065244  0.2196723  0.7430511

 Al 
  0.2454099  0.0014281  0.7631107

 Al 
  0.2449817  0.2412356  0.4842186

 Al 
  0.0125650  0.4835664  0.4874041

 Al 
  0.0004727  0.7580256  0.7296953

 Al 
  0.2668779  0.4964482  0.7420524

 Al 
  0.2539689  0.7399658  0.5046211

 Al 
  0.5023563  0.4964234  0.0159089

 Al 
  0.5049181  0.7576370  0.2481263

 Al 
  0.7693060  0.5114883  0.2493886

 Al 
  0.7429422  0.7422603  0.0122061

 Al 
  0.4882865  0.0024071  0.5036421

 Al 
  0.5118200  0.2608621  0.7489703

 Al 
  0.7319588  0.0078907  0.7630711

 Al 
  0.7457440  0.2736498  0.5038760

 Al 
  0.5125217  0.5216066  0.4913532

 Al 
  0.5183815  0.7567026  0.7621912

 Al 
  0.7442577  0.4967811  0.7459123

 Al 
  0.7523514  0.7462366  0.4846183

