32 
charge = 0 
 Al 
  0.9829142  0.0051062  0.0015643

 Al 
  0.0013032  0.2442132  0.2473628

 Al 
  0.2549923  0.0066259  0.2681414

 Al 
  0.2374771  0.2505111  0.0138681

 Al 
  0.4843411  0.9877197  0.0215831

 Al 
  0.5043834  0.2415710  0.2569502

 Al 
  0.7477241  0.0240062  0.2509566

 Al 
  0.7475113  0.2599092  0.9947973

 Al 
  0.9896862  0.4999802  0.9776682

 Al 
  0.0080219  0.7480112  0.2380043

 Al 
  0.2705064  0.4878112  0.2419200

 Al 
  0.2498589  0.7294354  0.9975484

 Al 
  0.9714383  0.9988949  0.5032548

 Al 
  0.0105267  0.2226449  0.7344488

 Al 
  0.2483454  0.9993862  0.7598077

 Al 
  0.2477031  0.2433407  0.4800752

 Al 
  0.0076234  0.4827212  0.4854265

 Al 
  0.9959556  0.7539095  0.7268242

 Al 
  0.2653780  0.4906267  0.7464717

 Al 
  0.2519034  0.7378929  0.5007438

 Al 
  0.5090181  0.4993404  0.0184100

 Al 
  0.4997104  0.7526212  0.2514999

 Al 
  0.7712923  0.5194433  0.2588919

 Al 
  0.7442713  0.7433221  0.0087360

 Al 
  0.4861294  0.0018662  0.5066729

 Al 
  0.5099673  0.2620402  0.7566408

 Al 
  0.7383013  0.0112804  0.7616455

 Al 
  0.7415177  0.2743453  0.5058524

 Al 
  0.5127630  0.5190696  0.4879994

 Al 
  0.5172504  0.7539453  0.7630315

 Al 
  0.7424076  0.4988515  0.7453146

 Al 
  0.7497760  0.7495582  0.4878905

