32 
charge = 0 
 Al 
  0.9818412  0.0038624  0.0024491

 Al 
  0.0017623  0.2446513  0.2473974

 Al 
  0.2559737  0.0065207  0.2684719

 Al 
  0.2370242  0.2514257  0.0142060

 Al 
  0.4856195  0.9891775  0.0222489

 Al 
  0.5047386  0.2416848  0.2564539

 Al 
  0.7481449  0.0235830  0.2511014

 Al 
  0.7451859  0.2600045  0.9945622

 Al 
  0.9888681  0.4997847  0.9765321

 Al 
  0.0081271  0.7474618  0.2385142

 Al 
  0.2707106  0.4873595  0.2424509

 Al 
  0.2501374  0.7290963  0.9977006

 Al 
  0.9706970  0.9995582  0.5025506

 Al 
  0.0098993  0.2216870  0.7359537

 Al 
  0.2476177  0.9998428  0.7604648

 Al 
  0.2471029  0.2427887  0.4804911

 Al 
  0.0085219  0.4826890  0.4856170

 Al 
  0.9968875  0.7548463  0.7271744

 Al 
  0.2657604  0.4917516  0.7456289

 Al 
  0.2523043  0.7382048  0.5015470

 Al 
  0.5077187  0.4987884  0.0181105

 Al 
  0.5007463  0.7535555  0.2507797

 Al 
  0.7710955  0.5182367  0.2572571

 Al 
  0.7439050  0.7429484  0.0094773

 Al 
  0.4862853  0.0019813  0.5059675

 Al 
  0.5106109  0.2619945  0.7552337

 Al 
  0.7370761  0.0106826  0.7619846

 Al 
  0.7422603  0.2745174  0.5056049

 Al 
  0.5128892  0.5197564  0.4885377

 Al 
  0.5176588  0.7545419  0.7629857

 Al 
  0.7425957  0.4982439  0.7454173

 Al 
  0.7502351  0.7487748  0.4871281

