32 
charge = 0 
 Al 
  0.9834798  0.0057225  0.0011163

 Al 
  0.0010482  0.2440003  0.2473430

 Al 
  0.2544577  0.0066321  0.2679323

 Al 
  0.2377358  0.2500285  0.0136553

 Al 
  0.4837038  0.9870105  0.0212106

 Al 
  0.5042090  0.2415413  0.2571940

 Al 
  0.7475063  0.0241832  0.2508886

 Al 
  0.7487055  0.2598485  0.9949384

 Al 
  0.9901243  0.5000718  0.9782585

 Al 
  0.0079786  0.7483058  0.2377630

 Al 
  0.2703641  0.4880699  0.2416799

 Al 
  0.2497154  0.7296285  0.9974618

 Al 
  0.9718442  0.9985620  0.5035741

 Al 
  0.0108262  0.2231969  0.7337063

 Al 
  0.2487389  0.9991436  0.7594686

 Al 
  0.2480199  0.2436476  0.4799243

 Al 
  0.0071766  0.4827707  0.4853621

 Al 
  0.9954730  0.7534070  0.7266794

 Al 
  0.2651663  0.4900562  0.7468987

 Al 
  0.2516967  0.7377457  0.5003267

 Al 
  0.5096852  0.4996164  0.0185350

 Al 
  0.4991770  0.7521534  0.2518749

 Al 
  0.7713603  0.5200052  0.2596864

 Al 
  0.7444792  0.7435412  0.0083486

 Al 
  0.4860898  0.0018056  0.5070504

 Al 
  0.5095973  0.2620303  0.7573511

 Al 
  0.7389226  0.0115749  0.7614635

 Al 
  0.7411514  0.2742042  0.5059576

 Al 
  0.5126665  0.5186872  0.4877457

 Al 
  0.5170103  0.7536322  0.7630352

 Al 
  0.7423407  0.4991931  0.7452676

 Al 
  0.7495458  0.7499839  0.4883026

