32 
charge = 0 
 Al 
  0.9907220  0.0116294  0.9960831

 Al 
  0.9974147  0.2421885  0.2472204

 Al 
  0.2472130  0.0047337  0.2640971

 Al 
  0.2418952  0.2440337  0.0096975

 Al 
  0.4772821  0.9804688  0.0157851

 Al 
  0.5024516  0.2423581  0.2593213

 Al 
  0.7449309  0.0243255  0.2503960

 Al 
  0.7622754  0.2588758  0.9972291

 Al 
  0.9959334  0.5008502  0.9854685

 Al 
  0.0078288  0.7523241  0.2357940

 Al 
  0.2670400  0.4920165  0.2400364

 Al 
  0.2479407  0.7325504  0.9959878

 Al 
  0.9776521  0.9950955  0.5053314

 Al 
  0.0134882  0.2320751  0.7264269

 Al 
  0.2537919  0.9959396  0.7552943

 Al 
  0.2520098  0.2481560  0.4807076

 Al 
  0.0028761  0.4847421  0.4860341

 Al 
  0.9899300  0.7466252  0.7266620

 Al 
  0.2620118  0.4840095  0.7516237

 Al 
  0.2490681  0.7364586  0.4954878

 Al 
  0.5173865  0.5023910  0.0188493

 Al 
  0.4929843  0.7475694  0.2563103

 Al 
  0.7707069  0.5241696  0.2666489

 Al 
  0.7477860  0.7472959  0.0037189

 Al 
  0.4872048  0.0010408  0.5118596

 Al 
  0.5039986  0.2603757  0.7652938

 Al 
  0.7457180  0.0145253  0.7590763

 Al 
  0.7376491  0.2702935  0.5064168

 Al 
  0.5101047  0.5129895  0.4859957

 Al 
  0.5128694  0.7497413  0.7621541

 Al 
  0.7428865  0.5041743  0.7450547

 Al 
  0.7469519  0.7559787  0.4939397

