32 
charge = 0 
 Al 
  0.9846691  0.0069328  0.0002079

 Al 
  0.0004888  0.2435894  0.2473021

 Al 
  0.2533080  0.0065492  0.2674335

 Al 
  0.2383186  0.2490149  0.0131454

 Al 
  0.4824365  0.9856344  0.0203901

 Al 
  0.5038674  0.2415375  0.2576679

 Al 
  0.7470546  0.0244617  0.2507623

 Al 
  0.7511460  0.2597037  0.9952626

 Al 
  0.9910561  0.5002450  0.9794849

 Al 
  0.0079117  0.7489357  0.2373038

 Al 
  0.2699978  0.4886516  0.2412480

 Al 
  0.2494171  0.7300579  0.9972675

 Al 
  0.9727241  0.9978986  0.5041409

 Al 
  0.0113992  0.2244456  0.7322447

 Al 
  0.2495792  0.9986275  0.7587644

 Al 
  0.2486845  0.2443233  0.4797386

 Al 
  0.0062992  0.4829353  0.4852953

 Al 
  0.9944792  0.7523340  0.7264578

 Al 
  0.2647010  0.4889053  0.7477637

 Al 
  0.2512648  0.7374647  0.4994666

 Al 
  0.5110490  0.5001671  0.0187355

 Al 
  0.4980805  0.7512289  0.2526546

 Al 
  0.7714358  0.5210448  0.2612185

 Al 
  0.7449446  0.7440448  0.0075454

 Al 
  0.4860873  0.0016794  0.5078511

 Al 
  0.5087669  0.2619425  0.7587879

 Al 
  0.7401824  0.0121578  0.7610762

 Al 
  0.7404336  0.2738119  0.5061358

 Al 
  0.5124066  0.5178444  0.4872754

 Al 
  0.5164571  0.7529776  0.7630006

 Al 
  0.7422665  0.4999480  0.7451834

 Al 
  0.7490830  0.7509047  0.4891887

