32 
charge = 0 
 Al 
  0.9893174  0.0107433  0.9969828

 Al 
  0.9981387  0.2424150  0.2472093

 Al 
  0.2486350  0.0053141  0.2649498

 Al 
  0.2409905  0.2451488  0.0105849

 Al 
  0.4782956  0.9814328  0.0168853

 Al 
  0.5027462  0.2420709  0.2590503

 Al 
  0.7454000  0.0245619  0.2504480

 Al 
  0.7598844  0.2590614  0.9967489

 Al 
  0.9947911  0.5007388  0.9841146

 Al 
  0.0078301  0.7515185  0.2360378

 Al 
  0.2678655  0.4912084  0.2402109

 Al 
  0.2482810  0.7319440  0.9963282

 Al 
  0.9764504  0.9956685  0.5052695

 Al 
  0.0131008  0.2301656  0.7275667

 Al 
  0.2528551  0.9965682  0.7560900

 Al 
  0.2512512  0.2472316  0.4802634

 Al 
  0.0035283  0.4842000  0.4857309

 Al 
  0.9908977  0.7479716  0.7264430

 Al 
  0.2626764  0.4849983  0.7507995

 Al 
  0.2495867  0.7366442  0.4963418

 Al 
  0.5160017  0.5019553  0.0189273

 Al 
  0.4940944  0.7482674  0.2555171

 Al 
  0.7710188  0.5237043  0.2657071

 Al 
  0.7470670  0.7464569  0.0045604

 Al 
  0.4868175  0.0011868  0.5109611

 Al 
  0.5051384  0.2608831  0.7638793

 Al 
  0.7445535  0.0140513  0.7595379

 Al 
  0.7381776  0.2712960  0.5064192

 Al 
  0.5107631  0.5141788  0.4861381

 Al 
  0.5138001  0.7504789  0.7624363

 Al 
  0.7426217  0.5031731  0.7450423

 Al 
  0.7474283  0.7547609  0.4928197

