32 
charge = 0 
 Al 
  0.9968356  0.0140092  0.9924100

 Al 
  0.9944631  0.2419138  0.2476412

 Al 
  0.2412876  0.0015296  0.2601703

 Al 
  0.2462415  0.2396589  0.0055777

 Al 
  0.4742624  0.9777202  0.0110737

 Al 
  0.5012759  0.2440758  0.2596245

 Al 
  0.7430350  0.0219197  0.2503069

 Al 
  0.7711821  0.2582768  0.9992550

 Al 
  0.0008688  0.5012103  0.9911366

 Al 
  0.0076816  0.7558487  0.2353992

 Al 
  0.2626145  0.4954198  0.2396824

 Al 
  0.2464482  0.7352495  0.9941674

 Al 
  0.9833115  0.9931414  0.5043822

 Al 
  0.0145785  0.2409076  0.7228231

 Al 
  0.2571902  0.9932132  0.7517982

 Al 
  0.2551866  0.2521608  0.4837162

 Al 
  0.0009591  0.4878917  0.4880872

 Al 
  0.9865737  0.7408012  0.7287053

 Al 
  0.2589278  0.4809193  0.7547411

 Al 
  0.2466648  0.7359153  0.4924410

 Al 
  0.5227637  0.5037560  0.0180078

 Al 
  0.4887840  0.7456401  0.2592372

 Al 
  0.7684632  0.5247983  0.2686983

 Al 
  0.7512376  0.7514690  0.0004703

 Al 
  0.4895129  0.0004418  0.5152653

 Al 
  0.4992401  0.2572991  0.7708987

 Al 
  0.7500186  0.0161341  0.7571816

 Al 
  0.7361393  0.2649201  0.5061210

 Al 
  0.5064923  0.5075293  0.4864982

 Al 
  0.5082137  0.7465744  0.7603968

 Al 
  0.7446909  0.5082929  0.7453591

 Al 
  0.7448517  0.7613621  0.4987265

