32 
charge = 0 
 Al 
  0.9948691  0.0135216  0.9935572

 Al 
  0.9953579  0.2418692  0.2474234

 Al 
  0.2431229  0.0026521  0.2614524

 Al 
  0.2447750  0.2409670  0.0069266

 Al 
  0.4749653  0.9783476  0.0125551

 Al 
  0.5016422  0.2434533  0.2596963

 Al 
  0.7436228  0.0229444  0.2503193

 Al 
  0.7686043  0.2584191  0.9986288

 Al 
  0.9992946  0.5011126  0.9893520

 Al 
  0.0077781  0.7547238  0.2354091

 Al 
  0.2641825  0.4943666  0.2397418

 Al 
  0.2469333  0.7343758  0.9948159

 Al 
  0.9814069  0.9936699  0.5048871

 Al 
  0.0143359  0.2380031  0.7237389

 Al 
  0.2562509  0.9940845  0.7529367

 Al 
  0.2541891  0.2508985  0.4825813

 Al 
  0.0014158  0.4867358  0.4873038

 Al 
  0.9874759  0.7426489  0.7278563

 Al 
  0.2599488  0.4816754  0.7538228

 Al 
  0.2474717  0.7360440  0.4932825

 Al 
  0.5211598  0.5034120  0.0183555

 Al 
  0.4900092  0.7460534  0.2584006

 Al 
  0.7693419  0.5248230  0.2684013

 Al 
  0.7500743  0.7500334  0.0014319

 Al 
  0.4886738  0.0006237  0.5142839

 Al 
  0.5007042  0.2584402  0.7691946

 Al 
  0.7487674  0.0156960  0.7577657

 Al 
  0.7364784  0.2668123  0.5062546

 Al 
  0.5077818  0.5093275  0.4861269

 Al 
  0.5098201  0.7475905  0.7610564

 Al 
  0.7440052  0.5070430  0.7452205

 Al 
  0.7455398  0.7596307  0.4972192

