32 
charge = 0 
 Al 
  0.0029281  0.0135847  0.9889906

 Al 
  0.9923296  0.2429125  0.2490508

 Al 
  0.2363843  0.9978565  0.2562447

 Al 
  0.2510891  0.2364252  0.0015494

 Al 
  0.4740570  0.9773402  0.0069031

 Al 
  0.5001436  0.2463046  0.2581518

 Al 
  0.7413408  0.0171081  0.2502190

 Al 
  0.7771187  0.2582335  0.0008255

 Al 
  0.0055430  0.5014207  0.9964556

 Al 
  0.0067422  0.7590812  0.2360415

 Al 
  0.2569019  0.4981907  0.2396367

 Al 
  0.2448938  0.7379758  0.9917789

 Al 
  0.9898582  0.9921885  0.5018675

 Al 
  0.0144956  0.2498936  0.7215905

 Al 
  0.2586926  0.9905809  0.7480348

 Al 
  0.2580701  0.2556198  0.4880340

 Al 
  0.0004245  0.4924558  0.4911217

 Al 
  0.9852594  0.7355923  0.7325392

 Al 
  0.2557423  0.4803450  0.7570393

 Al 
  0.2438778  0.7358361  0.4909695

 Al 
  0.5267561  0.5042671  0.0165499

 Al 
  0.4859500  0.7457230  0.2610452

 Al 
  0.7647790  0.5235124  0.2674892

 Al 
  0.7551111  0.7565306  0.9980867

 Al 
  0.4925325  0.9999839  0.5172677

 Al 
  0.4955064  0.2529033  0.7754851

 Al 
  0.7531941  0.0169855  0.7556161

 Al 
  0.7360787  0.2582570  0.5055975

 Al 
  0.5017759  0.5018279  0.4891119

 Al 
  0.5025184  0.7433592  0.7577459

 Al 
  0.7473133  0.5112123  0.7459643

 Al 
  0.7425920  0.7664942  0.5029986

