32 
charge = 0 
 Al 
  0.0084439  0.0107235  0.9860403

 Al 
  0.9915846  0.2447973  0.2515086

 Al 
  0.2333696  0.9947391  0.2527858

 Al 
  0.2554255  0.2347817  0.9984840

 Al 
  0.4766546  0.9787560  0.0037907

 Al 
  0.4991250  0.2485124  0.2550703

 Al 
  0.7399980  0.0107309  0.2498391

 Al 
  0.7797324  0.2586567  0.0015284

 Al 
  0.0093758  0.5014504  0.0010297

 Al 
  0.0047003  0.7614017  0.2373212

 Al 
  0.2507685  0.4999257  0.2396639

 Al 
  0.2434496  0.7405735  0.9893161

 Al 
  0.9966462  0.9922566  0.4988961

 Al 
  0.0131144  0.2574427  0.7226561

 Al 
  0.2577657  0.9883496  0.7441315

 Al 
  0.2602136  0.2578140  0.4927367

 Al 
  0.0008019  0.4978454  0.4942453

 Al 
  0.9864611  0.7322063  0.7375019

 Al 
  0.2531434  0.4822880  0.7584587

 Al 
  0.2410141  0.7362606  0.4912937

 Al 
  0.5288253  0.5041805  0.0147579

 Al 
  0.4846777  0.7474147  0.2616628

 Al 
  0.7602879  0.5210497  0.2642023

 Al 
  0.7587459  0.7618360  0.9966375

 Al 
  0.4955435  0.9997451  0.5174657

 Al 
  0.4936624  0.2480991  0.7784639

 Al 
  0.7554502  0.0170350  0.7545716

 Al 
  0.7373063  0.2515866  0.5051161

 Al 
  0.4968195  0.4967452  0.4934137

 Al 
  0.4965088  0.7402715  0.7545505

 Al 
  0.7499493  0.5120217  0.7466326

 Al 
  0.7404349  0.7705015  0.5062262

