32 
charge = 0 
 Al 
  0.0078078  0.0111542  0.9863732

 Al 
  0.9916069  0.2445436  0.2511670

 Al 
  0.2336382  0.9950745  0.2531830

 Al 
  0.2549515  0.2349067  0.9987971

 Al 
  0.4762289  0.9785295  0.0041211

 Al 
  0.4992414  0.2482563  0.2555010

 Al 
  0.7401416  0.0115465  0.2499035

 Al 
  0.7795518  0.2585949  0.0014851

 Al 
  0.0089575  0.5014578  0.0005148

 Al 
  0.0049985  0.7611702  0.2371479

 Al 
  0.2515098  0.4997612  0.2396552

 Al 
  0.2436142  0.7402629  0.9896032

 Al 
  0.9958294  0.9922071  0.4992488

 Al 
  0.0133384  0.2566172  0.7224321

 Al 
  0.2579860  0.9885971  0.7446079

 Al 
  0.2599995  0.2576147  0.4921675

 Al 
  0.0007326  0.4971746  0.4938877

 Al 
  0.9862024  0.7325108  0.7368670

 Al 
  0.2534169  0.4819539  0.7583226

 Al 
  0.2413519  0.7361863  0.4911824

 Al 
  0.5286669  0.5042052  0.0149906

 Al 
  0.4847706  0.7471598  0.2616318

 Al 
  0.7608509  0.5213838  0.2646503

 Al 
  0.7583325  0.7611987  0.9967811

 Al 
  0.4951945  0.9997636  0.5175189

 Al 
  0.4937899  0.2486758  0.7781892

 Al 
  0.7552077  0.0170660  0.7546743

 Al 
  0.7371108  0.2523675  0.5051705

 Al 
  0.4974085  0.4973157  0.4928345

 Al 
  0.4972303  0.7406378  0.7549552

 Al 
  0.7496510  0.5120254  0.7465534

 Al 
  0.7406824  0.7700807  0.5058821

