32 
charge = 0 
 Al 
  0.0053289  0.0125959  0.9876900

 Al 
  0.9918519  0.2436377  0.2499790

 Al 
  0.2348856  0.9964470  0.2547337

 Al 
  0.2530271  0.2355539  0.0001238

 Al 
  0.4748725  0.9777907  0.0054762

 Al 
  0.4996968  0.2472576  0.2570021

 Al 
  0.7407319  0.0145401  0.2501015

 Al 
  0.7785580  0.2583783  0.0012252

 Al 
  0.0072645  0.5014578  0.9984753

 Al 
  0.0060034  0.7601765  0.2365328

 Al 
  0.2543228  0.4990347  0.2396379

 Al 
  0.2442627  0.7390810  0.9907208

 Al 
  0.9927244  0.9921143  0.5006101

 Al 
  0.0140525  0.2532808  0.7218059

 Al 
  0.2585664  0.9895884  0.7463999

 Al 
  0.2590763  0.2567002  0.4900092

 Al 
  0.0005161  0.4946723  0.4924756

 Al 
  0.9854896  0.7339204  0.7345404

 Al 
  0.2545555  0.4809143  0.7577249

 Al 
  0.2426563  0.7359586  0.4909237

 Al 
  0.5278489  0.5042721  0.0158284

 Al 
  0.4852594  0.7463009  0.2614190

 Al 
  0.7629412  0.5225694  0.2662480

 Al 
  0.7567002  0.7587706  0.9973912

 Al 
  0.4938320  0.9998589  0.5175424

 Al 
  0.4945003  0.2508774  0.7769405

 Al 
  0.7542238  0.0170957  0.7551186

 Al 
  0.7364772  0.2553933  0.5053834

 Al 
  0.4996708  0.4995854  0.4907740

 Al 
  0.4999827  0.7420400  0.7564440

 Al 
  0.7484654  0.5118002  0.7462477

 Al 
  0.7416564  0.7683345  0.5044750

