32 
charge = 0 
 Al 
  0.0071791  0.0115564  0.9867061

 Al 
  0.9916452  0.2442998  0.2508440

 Al 
  0.2339253  0.9954136  0.2535766

 Al 
  0.2544738  0.2350478  0.9991189

 Al 
  0.4758378  0.9783191  0.0044552

 Al 
  0.4993565  0.2480026  0.2559094

 Al 
  0.7402876  0.0123360  0.2499616

 Al 
  0.7793438  0.2585355  0.0014343

 Al 
  0.0085367  0.5014616  0.0000012

 Al 
  0.0052770  0.7609314  0.2369833

 Al 
  0.2522350  0.4995904  0.2396490

 Al 
  0.2437775  0.7399572  0.9898879

 Al 
  0.9950299  0.9921687  0.4995966

 Al 
  0.0135439  0.2557868  0.7222353

 Al 
  0.2581753  0.9888458  0.7450720

 Al 
  0.2597780  0.2574031  0.4916093

 Al 
  0.0006683  0.4965212  0.4935300

 Al 
  0.9859759  0.7328362  0.7362532

 Al 
  0.2536966  0.4816494  0.7581803

 Al 
  0.2416861  0.7361183  0.4910883

 Al 
  0.5284887  0.5042275  0.0152134

 Al 
  0.4848745  0.7469197  0.2615922

 Al 
  0.7613980  0.5217031  0.2650809

 Al 
  0.7579204  0.7605737  0.9969271

 Al 
  0.4948480  0.9997847  0.5175536

 Al 
  0.4939384  0.2492426  0.7778984

 Al 
  0.7549639  0.0170870  0.7547807

 Al 
  0.7369301  0.2531397  0.5052238

 Al 
  0.4979877  0.4978862  0.4922801

 Al 
  0.4979395  0.7409980  0.7553463

 Al 
  0.7493528  0.5120044  0.7464754

 Al 
  0.7409299  0.7696537  0.5055356

