32 
charge = 0 
 Al 
  0.0059403  0.0122779  0.9873632

 Al 
  0.9917677  0.2438481  0.2502512

 Al 
  0.2345490  0.9961004  0.2543513

 Al 
  0.2535110  0.2353708  0.9997822

 Al 
  0.4751596  0.9779491  0.0051322

 Al 
  0.4995842  0.2475026  0.2566606

 Al 
  0.7405821  0.0138322  0.2500594

 Al 
  0.7788476  0.2584266  0.0013032

 Al 
  0.0076902  0.5014616  0.9989815

 Al 
  0.0057794  0.7604351  0.2366752

 Al 
  0.2536421  0.4992265  0.2396404

 Al 
  0.2441030  0.7393681  0.9904460

 Al 
  0.9934768  0.9921217  0.5002785

 Al 
  0.0139003  0.2541186  0.7219222

 Al 
  0.2584649  0.9893409  0.7459680

 Al 
  0.2593164  0.2569452  0.4905302

 Al 
  0.0005606  0.4952700  0.4928246

 Al 
  0.9856208  0.7335417  0.7350898

 Al 
  0.2542659  0.4811296  0.7578820

 Al 
  0.2423383  0.7360056  0.4909596

 Al 
  0.5280791  0.5042609  0.0156317

 Al 
  0.4851183  0.7464903  0.2614858

 Al 
  0.7624425  0.5222959  0.2658804

 Al 
  0.7571036  0.7593597  0.9972328

 Al 
  0.4941661  0.9998329  0.5175660

 Al 
  0.4942936  0.2503440  0.7772734

 Al 
  0.7544726  0.0171019  0.7550022

 Al 
  0.7366133  0.2546532  0.5053302

 Al 
  0.4991201  0.4990211  0.4912504

 Al 
  0.4993156  0.7416984  0.7560900

 Al 
  0.7487600  0.5118917  0.7463220

 Al 
  0.7414163  0.7687800  0.5048327

