32 
charge = 0 
 Al 
  0.0116888  0.0082001  0.9843485

 Al 
  0.9917244  0.2462180  0.2534763

 Al 
  0.2323326  0.9931501  0.2507363

 Al 
  0.2576791  0.2343857  0.9970657

 Al 
  0.4793018  0.9800901  0.0021769

 Al 
  0.4985335  0.2498119  0.2526100

 Al 
  0.7393075  0.0062843  0.2494270

 Al 
  0.7802497  0.2589971  0.0016026

 Al 
  0.0114091  0.5013588  0.0036137

 Al 
  0.0029244  0.7624214  0.2383001

 Al 
  0.2468875  0.5006411  0.2397691

 Al 
  0.2426377  0.7422405  0.9878768

 Al 
  0.0009220  0.9926712  0.4971140

 Al 
  0.0117160  0.2614697  0.7241857

 Al 
  0.2562163  0.9871269  0.7415858

 Al 
  0.2611393  0.2585986  0.4957292

 Al 
  0.0012029  0.5014393  0.4960101

 Al 
  0.9882481  0.7310356  0.7409844

 Al 
  0.2518601  0.4844030  0.7590627

 Al 
  0.2393013  0.7367568  0.4921303

 Al 
  0.5293141  0.5040369  0.0134424

 Al 
  0.4843770  0.7489035  0.2616974

 Al 
  0.7572633  0.5191711  0.2617420

 Al 
  0.7608113  0.7651651  0.9959556

 Al 
  0.4973046  0.9996918  0.5169101

 Al 
  0.4933729  0.2450881  0.7795468

 Al 
  0.7566618  0.0167120  0.7541062

 Al 
  0.7384956  0.2475793  0.5048413

 Al 
  0.4937850  0.4939124  0.4966809

 Al 
  0.4927367  0.7383620  0.7523378

 Al 
  0.7514034  0.5116294  0.7470348

 Al 
  0.7391961  0.7724469  0.5078994

