32 
charge = 0 
 Al 
  0.0103807  0.0092780  0.9850280

 Al 
  0.9916168  0.2456215  0.2526372

 Al 
  0.2326803  0.9937639  0.2515668

 Al 
  0.2568091  0.2344958  0.9975991

 Al 
  0.4781422  0.9795196  0.0028142

 Al 
  0.4987723  0.2492909  0.2536508

 Al 
  0.7395760  0.0081295  0.2496102

 Al 
  0.7801198  0.2588585  0.0016002

 Al 
  0.0106121  0.5014071  0.0025828

 Al 
  0.0036929  0.7620440  0.2378867

 Al 
  0.2484691  0.5003775  0.2397121

 Al 
  0.2429583  0.7415524  0.9884498

 Al 
  0.9991795  0.9924719  0.4978256

 Al 
  0.0123298  0.2598856  0.7234926

 Al 
  0.2569254  0.9876108  0.7426340

 Al 
  0.2608014  0.2583313  0.4945077

 Al 
  0.0010346  0.4999604  0.4953146

 Al 
  0.9874363  0.7314279  0.7395339

 Al 
  0.2523514  0.4834724  0.7588374

 Al 
  0.2399869  0.7365328  0.4917430

 Al 
  0.5291830  0.5040963  0.0140005

 Al 
  0.4844661  0.7482699  0.2617061

 Al 
  0.7585107  0.5199619  0.2627630

 Al 
  0.7599896  0.7638112  0.9962230

 Al 
  0.4966017  0.9997042  0.5171897

 Al 
  0.4934162  0.2463121  0.7791780

 Al 
  0.7561779  0.0168754  0.7542820

 Al 
  0.7379783  0.2491943  0.5049527

 Al 
  0.4950101  0.4950349  0.4953047

 Al 
  0.4942701  0.7391392  0.7532585

 Al 
  0.7508329  0.5118620  0.7468739

 Al 
  0.7396874  0.7717056  0.5072410

