32 
charge = 0 
 Al 
  0.0136417  0.0064551  0.9833337

 Al 
  0.9920152  0.2471623  0.2548413

 Al 
  0.2319972  0.9923110  0.2494802

 Al 
  0.2588647  0.2343448  0.9963715

 Al 
  0.4812596  0.9810096  0.0012462

 Al 
  0.4981734  0.2505792  0.2509393

 Al 
  0.7389350  0.0034070  0.2491127

 Al 
  0.7802584  0.2591976  0.0015383

 Al 
  0.0125316  0.5012499  0.0051285

 Al 
  0.0016398  0.7628942  0.2389684

 Al 
  0.2444941  0.5009789  0.2399064

 Al 
  0.2421848  0.7433172  0.9870501

 Al 
  0.0035679  0.9930536  0.4960806

 Al 
  0.0106690  0.2637345  0.7254171

 Al 
  0.2549540  0.9864314  0.7399634

 Al 
  0.2615366  0.2588572  0.4975892

 Al 
  0.0014517  0.5037152  0.4969977

 Al 
  0.9896886  0.7306643  0.7432652

 Al 
  0.2511905  0.4859834  0.7593523

 Al 
  0.2383013  0.7371541  0.4928271

 Al 
  0.5293352  0.5039565  0.0125278

 Al 
  0.4843188  0.7499171  0.2616368

 Al 
  0.7553364  0.5179137  0.2601678

 Al 
  0.7620006  0.7672083  0.9955621

 Al 
  0.4983219  0.9997017  0.5163556

 Al 
  0.4934991  0.2432392  0.7799106

 Al 
  0.7573821  0.0163779  0.7538760

 Al 
  0.7393632  0.2451735  0.5046644

 Al 
  0.4919633  0.4922887  0.4988837

 Al 
  0.4904200  0.7371850  0.7508836

 Al 
  0.7522078  0.5111034  0.7472724

 Al 
  0.7384969  0.7734345  0.5088498

