32 
charge = 0 
 Al 
  0.0123434  0.0076320  0.9840082

 Al 
  0.9918049  0.2465274  0.2539181

 Al 
  0.2321940  0.9928580  0.2503181

 Al 
  0.2580924  0.2343547  0.9968182

 Al 
  0.4799267  0.9803896  0.0018625

 Al 
  0.4984134  0.2500705  0.2520655

 Al 
  0.7391788  0.0053364  0.2493280

 Al 
  0.7802757  0.2590664  0.0015890

 Al 
  0.0117952  0.5013279  0.0041248

 Al 
  0.0025135  0.7625922  0.2385167

 Al 
  0.2460893  0.5007623  0.2398074

 Al 
  0.2424818  0.7425944  0.9875947

 Al 
  0.0018031  0.9927875  0.4967638

 Al 
  0.0113819  0.2622420  0.7245706

 Al 
  0.2558215  0.9868893  0.7410499

 Al 
  0.2612866  0.2587038  0.4963480

 Al 
  0.0012871  0.5021930  0.4963480

 Al 
  0.9886998  0.7308821  0.7417331

 Al 
  0.2516262  0.4849067  0.7591654

 Al 
  0.2389622  0.7368806  0.4923482

 Al 
  0.5293451  0.5040085  0.0131479

 Al 
  0.4843485  0.7492339  0.2616826

 Al 
  0.7566259  0.5187602  0.2612210

 Al 
  0.7612148  0.7658470  0.9958232

 Al 
  0.4976499  0.9996906  0.5167430

 Al 
  0.4933889  0.2444718  0.7796953

 Al 
  0.7569031  0.0166118  0.7540258

 Al 
  0.7387741  0.2467724  0.5047832

 Al 
  0.4931736  0.4933605  0.4973999

 Al 
  0.4919633  0.7379697  0.7518613

 Al 
  0.7516794  0.5114772  0.7471152

 Al 
  0.7389572  0.7727947  0.5082224

