32 
charge = 0 
 Al 
  0.0129944  0.0070504  0.9836704

 Al 
  0.9919014  0.2468417  0.2543735

 Al 
  0.2320826  0.9925783  0.2498998

 Al 
  0.2584884  0.2343411  0.9965868

 Al 
  0.4805802  0.9806965  0.0015519

 Al 
  0.4982934  0.2503267  0.2515074

 Al 
  0.7390538  0.0043760  0.2492228

 Al 
  0.7802794  0.2591332  0.0015680

 Al 
  0.0121702  0.5012908  0.0046310

 Al 
  0.0020841  0.7627506  0.2387394

 Al 
  0.2452898  0.5008750  0.2398532

 Al 
  0.2423308  0.7429533  0.9873187

 Al 
  0.0026855  0.9929150  0.4964185

 Al 
  0.0110329  0.2629969  0.7249814

 Al 
  0.2553995  0.9866578  0.7405091

 Al 
  0.2614202  0.2587916  0.4969680

 Al 
  0.0013700  0.5029528  0.4966784

 Al 
  0.9891812  0.7307584  0.7424942

 Al 
  0.2514034  0.4854339  0.7592619

 Al 
  0.2386280  0.7370130  0.4925808

 Al 
  0.5293525  0.5039812  0.0128434

 Al 
  0.4843287  0.7495730  0.2616628

 Al 
  0.7559836  0.5183407  0.2606950

 Al 
  0.7616120  0.7665301  0.9956920

 Al 
  0.4979902  0.9996943  0.5165573

 Al 
  0.4934310  0.2438543  0.7798166

 Al 
  0.7571432  0.0165004  0.7539478

 Al 
  0.7390637  0.2459693  0.5047250

 Al 
  0.4925647  0.4928184  0.4981350

 Al 
  0.4911898  0.7375773  0.7513762

 Al 
  0.7519479  0.5113014  0.7471944

 Al 
  0.7387233  0.7731251  0.5085392

