32 
charge = 0 
 Al 
  0.0212700  0.9984506  0.9793339

 Al 
  0.9950337  0.2515494  0.2617903

 Al 
  0.2336976  0.9904027  0.2440733

 Al 
  0.2612346  0.2360118  0.9952700

 Al 
  0.4922108  0.9851814  0.9974853

 Al 
  0.4966413  0.2533464  0.2430721

 Al 
  0.7380414  0.9908557  0.2473751

 Al 
  0.7780617  0.2594723  0.0005408

 Al 
  0.0154968  0.5000854  0.0104982

 Al 
  0.9944297  0.7632135  0.2425338

 Al 
  0.2351691  0.5016051  0.2418370

 Al 
  0.2413061  0.7484852  0.9848126

 Al 
  0.0142468  0.9959544  0.4926736

 Al 
  0.0047547  0.2712019  0.7332682

 Al 
  0.2474259  0.9843325  0.7327929

 Al 
  0.2610168  0.2573684  0.5053586

 Al 
  0.0018143  0.5133632  0.4999394

 Al 
  0.9984110  0.7325009  0.7537275

 Al 
  0.2493701  0.4944928  0.7598819

 Al 
  0.2351158  0.7399015  0.4969742

 Al 
  0.5265767  0.5041223  0.0073066

 Al 
  0.4848918  0.7542931  0.2607767

 Al 
  0.7468764  0.5119239  0.2538426

 Al 
  0.7658173  0.7749814  0.9937404

 Al 
  0.5013601  0.0003700  0.5122457

 Al 
  0.4970138  0.2358089  0.7779739

 Al 
  0.7604723  0.0136181  0.7534342

 Al 
  0.7441983  0.2360019  0.5035196

 Al 
  0.4854017  0.4867816  0.5094451

 Al 
  0.4812843  0.7326543  0.7440486

 Al 
  0.7545641  0.5066903  0.7481461

 Al 
  0.7367940  0.7749777  0.5122840

