32 
charge = 0 
 Al 
  0.0203913  0.9994431  0.9797906

 Al 
  0.9944730  0.2509715  0.2608163

 Al 
  0.2331394  0.9904534  0.2447762

 Al 
  0.2612593  0.2356047  0.9952193

 Al 
  0.4905661  0.9846641  0.9979617

 Al 
  0.4968356  0.2530555  0.2441043

 Al 
  0.7380674  0.9924076  0.2476226

 Al 
  0.7785444  0.2595317  0.0007178

 Al 
  0.0153619  0.5003168  0.0099624

 Al 
  0.9955151  0.7633620  0.2419930

 Al 
  0.2361900  0.5015977  0.2414076

 Al 
  0.2412529  0.7477662  0.9848993

 Al 
  0.0130068  0.9954458  0.4929843

 Al 
  0.0056297  0.2704866  0.7319959

 Al 
  0.2485496  0.9844822  0.7337063

 Al 
  0.2613546  0.2578610  0.5043995

 Al 
  0.0018922  0.5121813  0.4997005

 Al 
  0.9970818  0.7319130  0.7523637

 Al 
  0.2495186  0.4932899  0.7598832

 Al 
  0.2353757  0.7394263  0.4963554

 Al 
  0.5272511  0.5040208  0.0081320

 Al 
  0.4847532  0.7537894  0.2609549

 Al 
  0.7479667  0.5127358  0.2545617

 Al 
  0.7655017  0.7741646  0.9940114

 Al 
  0.5011546  0.0002067  0.5129437

 Al 
  0.4962527  0.2366776  0.7786236

 Al 
  0.7600626  0.0141144  0.7534342

 Al 
  0.7434681  0.2370266  0.5037337

 Al 
  0.4860589  0.4873249  0.5080256

 Al 
  0.4823189  0.7331295  0.7449668

 Al 
  0.7543834  0.5074390  0.7480459

 Al 
  0.7368237  0.7751114  0.5119066

