32 
charge = 0 
 Al 
  0.0208406  0.9989382  0.9795567

 Al 
  0.9947490  0.2512623  0.2613051

 Al 
  0.2334068  0.9904188  0.2444223

 Al 
  0.2612618  0.2358014  0.9952379

 Al 
  0.4913866  0.9849277  0.9977216

 Al 
  0.4967378  0.2532053  0.2435832

 Al 
  0.7380501  0.9916192  0.2474976

 Al 
  0.7783080  0.2595070  0.0006287

 Al 
  0.0154423  0.5002042  0.0102408

 Al 
  0.9949730  0.7632964  0.2422615

 Al 
  0.2356641  0.5016039  0.2416155

 Al 
  0.2412702  0.7481263  0.9848448

 Al 
  0.0136404  0.9956970  0.4928221

 Al 
  0.0051916  0.2708579  0.7326271

 Al 
  0.2479865  0.9844005  0.7332434

 Al 
  0.2611975  0.2576271  0.5048847

 Al 
  0.0018601  0.5127815  0.4998267

 Al 
  0.9977464  0.7321952  0.7530531

 Al 
  0.2494419  0.4938939  0.7598856

 Al 
  0.2352371  0.7396602  0.4966648

 Al 
  0.5269256  0.5040679  0.0077224

 Al 
  0.4848213  0.7540481  0.2608683

 Al 
  0.7474160  0.5123274  0.2541929

 Al 
  0.7656700  0.7745879  0.9938765

 Al 
  0.5012673  0.0002859  0.5125984

 Al 
  0.4966239  0.2362346  0.7783142

 Al 
  0.7602693  0.0138706  0.7534318

 Al 
  0.7438320  0.2365019  0.5036298

 Al 
  0.4857173  0.4870440  0.5087409

 Al 
  0.4817893  0.7328833  0.7445040

 Al 
  0.7544800  0.5070677  0.7480966

 Al 
  0.7367977  0.7750606  0.5120996

