32 
charge = 0 
 Al 
  0.0231560  0.9963009  0.9784021

 Al 
  0.9965905  0.2529107  0.2641466

 Al 
  0.2355205  0.9905685  0.2423717

 Al 
  0.2606529  0.2372704  0.9956326

 Al 
  0.4964185  0.9863249  0.9963467

 Al 
  0.4961933  0.2539255  0.2406675

 Al 
  0.7381281  0.9874029  0.2467799

 Al 
  0.7766521  0.2591357  0.0001052

 Al 
  0.0153792  0.4994159  0.0114932

 Al 
  0.9916836  0.7625823  0.2439483

 Al 
  0.2331432  0.5015494  0.2431748

 Al 
  0.2417912  0.7502587  0.9850354

 Al 
  0.0168717  0.9973553  0.4921291

 Al 
  0.0025902  0.2725323  0.7366578

 Al 
  0.2446673  0.9842149  0.7307039

 Al 
  0.2597767  0.2557423  0.5075702

 Al 
  0.0013564  0.5160190  0.5003280

 Al 
  0.0017375  0.7343745  0.7568932

 Al 
  0.2490681  0.4973603  0.7597965

 Al 
  0.2347767  0.7412294  0.4984865

 Al 
  0.5244641  0.5045221  0.0050975

 Al 
  0.4852718  0.7553017  0.2602322

 Al 
  0.7443060  0.5099512  0.2523353

 Al 
  0.7662492  0.7765086  0.9930053

 Al 
  0.5015185  0.0008750  0.5103398

 Al 
  0.4992414  0.2339253  0.7758106

 Al 
  0.7614858  0.0122209  0.7535023

 Al 
  0.7460819  0.2338411  0.5028662

 Al 
  0.4841963  0.4857247  0.5128026

 Al 
  0.4791347  0.7318091  0.7418606

 Al 
  0.7548129  0.5047436  0.7483738

 Al 
  0.7370798  0.7741028  0.5131083

