32 
charge = 0 
 Al 
  0.0224531  0.9971029  0.9787362

 Al 
  0.9959408  0.2523786  0.2632159

 Al 
  0.2347186  0.9904534  0.2430461

 Al 
  0.2609722  0.2367247  0.9954520

 Al 
  0.4947144  0.9858930  0.9967960

 Al 
  0.4963665  0.2537189  0.2416007

 Al 
  0.7380674  0.9887110  0.2470125

 Al 
  0.7772511  0.2593052  0.0002747

 Al 
  0.0155054  0.4996993  0.0111529

 Al 
  0.9927887  0.7628793  0.2433691

 Al 
  0.2338634  0.5015816  0.2425920

 Al 
  0.2415314  0.7495520  0.9848646

 Al 
  0.0159027  0.9967712  0.4923098

 Al 
  0.0034516  0.2720756  0.7352619

 Al 
  0.2457601  0.9842161  0.7315059

 Al 
  0.2603423  0.2564601  0.5067125

 Al 
  0.0015890  0.5150054  0.5002030

 Al 
  0.0004084  0.7335577  0.7556680

 Al 
  0.2491807  0.4962390  0.7598436

 Al 
  0.2348597  0.7406725  0.4978887

 Al 
  0.5253861  0.5043364  0.0060096

 Al 
  0.4851146  0.7549428  0.2604698

 Al 
  0.7453121  0.5107321  0.2528909

 Al 
  0.7661378  0.7759888  0.9933122

 Al 
  0.5015160  0.0006571  0.5111319

 Al 
  0.4982959  0.2346319  0.7767697

 Al 
  0.7610799  0.0128088  0.7534652

 Al 
  0.7453158  0.2346418  0.5031496

 Al 
  0.4846047  0.4861009  0.5114908

 Al 
  0.4799193  0.7320850  0.7427182

 Al 
  0.7547473  0.5055331  0.7482860

 Al 
  0.7369016  0.7745471  0.5127964

