32 
charge = 0 
 Al 
  0.0243614  0.9949433  0.9779021

 Al 
  0.9980100  0.2539330  0.2659646

 Al 
  0.2374276  0.9909905  0.2410264

 Al 
  0.2596716  0.2385525  0.9961116

 Al 
  0.4999542  0.9871083  0.9954507

 Al 
  0.4958628  0.2542424  0.2389003

 Al 
  0.7383582  0.9850663  0.2463356

 Al 
  0.7752921  0.2586357  0.9997970

 Al 
  0.0148037  0.4987884  0.0119561

 Al 
  0.9894436  0.7618138  0.2451760

 Al 
  0.2320640  0.5014566  0.2445485

 Al 
  0.2426179  0.7516620  0.9857408

 Al 
  0.0184867  0.9986350  0.4918903

 Al 
  0.0008886  0.2731610  0.7396391

 Al 
  0.2425424  0.9844191  0.7292312

 Al 
  0.2583535  0.2540345  0.5092124

 Al 
  0.0006695  0.5178716  0.5004777

 Al 
  0.0043773  0.7362717  0.7591951

 Al 
  0.2488355  0.4994889  0.7596604

 Al 
  0.2348300  0.7424632  0.4996374

 Al 
  0.5222761  0.5050097  0.0031286

 Al 
  0.4855960  0.7558339  0.2596641

 Al 
  0.7423469  0.5083931  0.2514009

 Al 
  0.7662294  0.7771608  0.9923222

 Al 
  0.5012883  0.0013762  0.5086085

 Al 
  0.5013502  0.2326865  0.7735001

 Al 
  0.7623236  0.0109128  0.7535951

 Al 
  0.7476882  0.2324712  0.5021954

 Al 
  0.4836642  0.4851245  0.5153124

 Al 
  0.4778699  0.7315442  0.7401973

 Al 
  0.7548141  0.5031298  0.7485422

 Al 
  0.7377036  0.7728194  0.5136800

