32 
charge = 0 
 Al 
  0.0220769  0.9975323  0.9789243

 Al 
  0.9956289  0.2521063  0.2627457

 Al 
  0.2343547  0.9904200  0.2433852

 Al 
  0.2610886  0.2364722  0.9953789

 Al 
  0.4938741  0.9856641  0.9970237

 Al 
  0.4964569  0.2536038  0.2420808

 Al 
  0.7380501  0.9894015  0.2471313

 Al 
  0.7775333  0.2593721  0.0003626

 Al 
  0.0155289  0.4998329  0.0109537

 Al 
  0.9933370  0.7630055  0.2430870

 Al 
  0.2342693  0.5015940  0.2423259

 Al 
  0.2414361  0.7491981  0.9848213

 Al 
  0.0153780  0.9964915  0.4924187

 Al 
  0.0038835  0.2718096  0.7345849

 Al 
  0.2463121  0.9842396  0.7319242

 Al 
  0.2605898  0.2567856  0.5062720

 Al 
  0.0016794  0.5144745  0.5001262

 Al 
  0.9997438  0.7331828  0.7550344

 Al 
  0.2492401  0.4956648  0.7598609

 Al 
  0.2349277  0.7404064  0.4975855

 Al 
  0.5258081  0.5042572  0.0064502

 Al 
  0.4850379  0.7547399  0.2605774

 Al 
  0.7458257  0.5111269  0.2531917

 Al 
  0.7660512  0.7756831  0.9934582

 Al 
  0.5014838  0.0005557  0.5115130

 Al 
  0.4978504  0.2350069  0.7772016

 Al 
  0.7608782  0.0130872  0.7534516

 Al 
  0.7449396  0.2350725  0.5032795

 Al 
  0.4848460  0.4863113  0.5108200

 Al 
  0.4803487  0.7322546  0.7431563

 Al 
  0.7546978  0.5059230  0.7482402

 Al 
  0.7368447  0.7747215  0.5126330

