32 
charge = 0 
 Al 
  0.0237921  0.9955794  0.9781211

 Al 
  0.9972798  0.2534280  0.2650624

 Al 
  0.2364227  0.9907480  0.2416997

 Al 
  0.2602186  0.2378781  0.9958554

 Al 
  0.4981622  0.9867296  0.9959000

 Al 
  0.4960249  0.2541000  0.2397691

 Al 
  0.7382246  0.9861876  0.2465534

 Al 
  0.7760000  0.2589142  0.9999443

 Al 
  0.0151465  0.4991114  0.0117606

 Al 
  0.9905685  0.7622284  0.2445485

 Al 
  0.2325429  0.5015061  0.2438246

 Al 
  0.2421501  0.7509616  0.9853225

 Al 
  0.0177343  0.9979753  0.4919905

 Al 
  0.0017351  0.2728937  0.7381144

 Al 
  0.2435931  0.9842805  0.7299441

 Al 
  0.2591159  0.2549342  0.5084006

 Al 
  0.0010532  0.5169732  0.5004171

 Al 
  0.0030605  0.7352792  0.7580689

 Al 
  0.2489555  0.4984444  0.7597347

 Al 
  0.2347656  0.7418259  0.4990706

 Al 
  0.5234308  0.5047461  0.0041396

 Al 
  0.4854327  0.7556000  0.2599649

 Al 
  0.7433196  0.5091741  0.2518403

 Al 
  0.7662801  0.7769009  0.9926773

 Al 
  0.5014430  0.0011150  0.5095008

 Al 
  0.5002587  0.2332793  0.7747228

 Al 
  0.7618992  0.0115898  0.7535469

 Al 
  0.7468714  0.2331196  0.5025494

 Al 
  0.4838832  0.4854017  0.5140760

 Al 
  0.4784503  0.7316259  0.7410202

 Al 
  0.7548352  0.5039416  0.7484592

 Al 
  0.7373459  0.7735285  0.5134003

