32 
charge = 0 
 Al 
  0.0250879  0.9941599  0.9777004

 Al 
  0.9991906  0.2546743  0.2672974

 Al 
  0.2391342  0.9914732  0.2400042

 Al 
  0.2586394  0.2396998  0.9965472

 Al 
  0.5027486  0.9876368  0.9947589

 Al 
  0.4956252  0.2543933  0.2376491

 Al 
  0.7386293  0.9835602  0.2460311

 Al 
  0.7741065  0.2580949  0.9996102

 Al 
  0.0140785  0.4982687  0.0121232

 Al 
  0.9877358  0.7610787  0.2461722

 Al 
  0.2315764  0.5013774  0.2457836

 Al 
  0.2435498  0.7527103  0.9866331

 Al 
  0.0194013  0.9997042  0.4917962

 Al 
  0.9996349  0.2733850  0.7420734

 Al 
  0.2410240  0.9847829  0.7282560

 Al 
  0.2570157  0.2525172  0.5104079

 Al 
  0.9999332  0.5191228  0.5005297

 Al 
  0.0063301  0.7379251  0.7607953

 Al 
  0.2486263  0.5009740  0.7595268

 Al 
  0.2350688  0.7435053  0.5004443

 Al 
  0.5202948  0.5054861  0.0015012

 Al 
  0.4858435  0.7560554  0.2591419

 Al 
  0.7408965  0.5072076  0.2508440

 Al 
  0.7659967  0.7772796  0.9917306

 Al 
  0.5009096  0.0018068  0.5071506

 Al 
  0.5031248  0.2318982  0.7714036

 Al 
  0.7629907  0.0097965  0.7536644

 Al 
  0.7489815  0.2316259  0.5015890

 Al 
  0.4835095  0.4847780  0.5170969

 Al 
  0.4771979  0.7316358  0.7389919

 Al 
  0.7547003  0.5018947  0.7486647

 Al 
  0.7384152  0.7714890  0.5140810

