32 
charge = 0 
 Al 
  0.0261027  0.9932677  0.9779850

 Al 
  0.0023353  0.2563140  0.2702379

 Al 
  0.2440189  0.9931612  0.2375971

 Al 
  0.2553203  0.2430511  0.9976561

 Al 
  0.5097409  0.9887716  0.9929904

 Al 
  0.4950955  0.2544156  0.2349723

 Al 
  0.7396169  0.9809774  0.2454779

 Al 
  0.7706970  0.2561816  0.9994282

 Al 
  0.0113881  0.4969717  0.0119549

 Al 
  0.9837743  0.7588374  0.2487562

 Al 
  0.2315764  0.5012462  0.2493812

 Al 
  0.2469420  0.7550579  0.9900958

 Al 
  0.0203777  0.0025506  0.4917405

 Al 
  0.9968950  0.2730211  0.7484271

 Al 
  0.2379635  0.9864932  0.7265915

 Al 
  0.2529999  0.2483243  0.5131491

 Al 
  0.9974011  0.5215472  0.5005804

 Al 
  0.0106393  0.7424447  0.7640352

 Al 
  0.2478776  0.5039429  0.7591394

 Al 
  0.2363225  0.7463133  0.5019900

 Al 
  0.5144226  0.5069836  0.9971635

 Al 
  0.4864264  0.7558735  0.2575590

 Al 
  0.7375142  0.5043339  0.2499950

 Al 
  0.7647233  0.7760829  0.9900401

 Al 
  0.4993849  0.0029417  0.5031323

 Al 
  0.5078090  0.2305232  0.7652888

 Al 
  0.7647295  0.0067150  0.7537028

 Al 
  0.7523378  0.2302299  0.4997983

 Al 
  0.4839476  0.4842050  0.5208393

 Al 
  0.4766757  0.7330677  0.7363720

 Al 
  0.7540320  0.4990347  0.7489505

 Al 
  0.7409101  0.7671180  0.5149708

