32 
charge = 0 
 Al 
  0.0256497  0.9936030  0.9776793

 Al 
  0.0004765  0.2553945  0.2685981

 Al 
  0.2410821  0.9921019  0.2389696

 Al 
  0.2573623  0.2410227  0.9970212

 Al 
  0.5056779  0.9881330  0.9940325

 Al 
  0.4953950  0.2544639  0.2364549

 Al 
  0.7389919  0.9822818  0.2457601

 Al 
  0.7727588  0.2573920  0.9994815

 Al 
  0.0130946  0.4977179  0.0121417

 Al 
  0.9860180  0.7602049  0.2472390

 Al 
  0.2313759  0.5013044  0.2472056

 Al 
  0.2447886  0.7537424  0.9878756

 Al 
  0.0200349  0.0008712  0.4917541

 Al 
  0.9984172  0.2733862  0.7446909

 Al 
  0.2396057  0.9853584  0.7274194

 Al 
  0.2554391  0.2508131  0.5115910

 Al 
  0.9989889  0.5202527  0.5005520

 Al 
  0.0082385  0.7397641  0.7622791

 Al 
  0.2483590  0.5023452  0.7593721

 Al 
  0.2354871  0.7446500  0.5011794

 Al 
  0.5179917  0.5060641  0.9997302

 Al 
  0.4860935  0.7561049  0.2585268

 Al 
  0.7394461  0.5059948  0.2504034

 Al 
  0.7655735  0.7770370  0.9910586

 Al 
  0.5003601  0.0022759  0.5055356

 Al 
  0.5050530  0.2312274  0.7689830

 Al 
  0.7637035  0.0085553  0.7537127

 Al 
  0.7503638  0.2309279  0.5008836

 Al 
  0.4835627  0.4845008  0.5187874

 Al 
  0.4767846  0.7320244  0.7378273

 Al 
  0.7544837  0.5006534  0.7487872

 Al 
  0.7393446  0.7698295  0.5144683

