32 
charge = 0 
 Al 
  0.0248639  0.9943976  0.9777486

 Al 
  0.9987860  0.2544292  0.2668568

 Al 
  0.2385389  0.9912962  0.2403470

 Al 
  0.2590107  0.2392988  0.9963962

 Al 
  0.5018019  0.9874647  0.9949928

 Al 
  0.4957032  0.2543525  0.2380600

 Al 
  0.7385290  0.9840379  0.2461289

 Al 
  0.7745186  0.2582917  0.9996671

 Al 
  0.0143495  0.4984456  0.0120836

 Al 
  0.9883063  0.7613385  0.2458319

 Al 
  0.2317076  0.5014034  0.2453517

 Al 
  0.2432070  0.7523613  0.9862989

 Al 
  0.0191265  0.9993367  0.4918209

 Al 
  0.0000495  0.2733342  0.7412418

 Al 
  0.2415215  0.9846394  0.7285679

 Al 
  0.2574885  0.2530444  0.5100119

 Al 
  0.0002017  0.5187194  0.5005161

 Al 
  0.0056829  0.7373533  0.7602742

 Al 
  0.2487018  0.5004901  0.7595738

 Al 
  0.2349698  0.7431464  0.5001819

 Al 
  0.5209903  0.5053166  0.0020593

 Al 
  0.4857606  0.7559997  0.2593263

 Al 
  0.7413791  0.5076061  0.2510160

 Al 
  0.7660957  0.7772784  0.9919360

 Al 
  0.5010556  0.0016583  0.5076531

 Al 
  0.5025147  0.2321482  0.7721388

 Al 
  0.7627642  0.0101827  0.7536434

 Al 
  0.7485409  0.2318907  0.5018019

 Al 
  0.4835379  0.4848856  0.5165116

 Al 
  0.4773947  0.7315752  0.7393891

 Al 
  0.7547498  0.5023081  0.7486238

 Al 
  0.7381541  0.7719692  0.5139486

