32 
charge = 0 
 Al 
  0.0259207  0.9933741  0.9777808

 Al 
  0.0013885  0.2558623  0.2694359

 Al 
  0.2425078  0.9926006  0.2382778

 Al 
  0.2563846  0.2420004  0.9973430

 Al 
  0.5076939  0.9884535  0.9935226

 Al 
  0.4952440  0.2544602  0.2356963

 Al 
  0.7392839  0.9815677  0.2456054

 Al 
  0.7717650  0.2568252  0.9994357

 Al 
  0.0122952  0.4973430  0.0120774

 Al 
  0.9848832  0.7595478  0.2479865

 Al 
  0.2314081  0.5012673  0.2482563

 Al 
  0.2457948  0.7544131  0.9889065

 Al 
  0.0202824  0.0016979  0.4917442

 Al 
  0.9976375  0.2732575  0.7465299

 Al 
  0.2387419  0.9858707  0.7269578

 Al 
  0.2542634  0.2495916  0.5123744

 Al 
  0.9982402  0.5209334  0.5005631

 Al 
  0.0094661  0.7410784  0.7631937

 Al 
  0.2481375  0.5031818  0.7592594

 Al 
  0.2358658  0.7454656  0.5016138

 Al 
  0.5162752  0.5065046  0.9984728

 Al 
  0.4862606  0.7560344  0.2580627

 Al 
  0.7384783  0.5051681  0.2501745

 Al 
  0.7651874  0.7766534  0.9905661

 Al 
  0.4999035  0.0026051  0.5043674

 Al 
  0.5064118  0.2308475  0.7671972

 Al 
  0.7642060  0.0076593  0.7537214

 Al 
  0.7513341  0.2305455  0.5003601

 Al 
  0.4837112  0.4843436  0.5198480

 Al 
  0.4766645  0.7324675  0.7370823

 Al 
  0.7542807  0.4998342  0.7488689

 Al 
  0.7400834  0.7685412  0.5147208

