32 
charge = 0 
 Al 
  0.0253465  0.9948963  0.9810480

 Al 
  0.0074588  0.2582756  0.2733120

 Al 
  0.2526892  0.9969655  0.2345824

 Al 
  0.2489914  0.2493565  0.9987686

 Al 
  0.5199755  0.9905685  0.9898607

 Al 
  0.4943592  0.2534491  0.2320096

 Al 
  0.7419546  0.9801940  0.2454124

 Al 
  0.7641144  0.2516744  0.0002277

 Al 
  0.0052250  0.4955225  0.0106765

 Al 
  0.9790481  0.7545282  0.2527610

 Al 
  0.2346035  0.5015828  0.2560517

 Al 
  0.2548500  0.7576395  0.9984481

 Al 
  0.0180672  0.0068573  0.4916304

 Al 
  0.9940585  0.2699433  0.7585280

 Al 
  0.2360366  0.9915054  0.7268427

 Al 
  0.2457205  0.2419732  0.5168531

 Al 
  0.9918927  0.5233466  0.5010655

 Al 
  0.0153198  0.7496683  0.7668655

 Al 
  0.2457750  0.5063871  0.7583969

 Al 
  0.2397307  0.7508824  0.5026583

 Al 
  0.5031298  0.5098584  0.9899894

 Al 
  0.4873521  0.7534738  0.2544329

 Al 
  0.7328251  0.5000136  0.2498131

 Al 
  0.7613237  0.7697960  0.9869969

 Al 
  0.4960163  0.0045505  0.4958517

 Al 
  0.5150314  0.2298277  0.7541038

 Al 
  0.7677070  0.0012834  0.7528377

 Al 
  0.7577509  0.2297560  0.4964742

 Al 
  0.4863843  0.4836468  0.5243429

 Al 
  0.4790023  0.7389152  0.7335874

 Al 
  0.7520358  0.4955646  0.7494332

 Al 
  0.7462230  0.7580961  0.5161378

