32 
charge = 0 
 Al 
  0.0256980  0.9943542  0.9802646

 Al 
  0.0066111  0.2580046  0.2729803

 Al 
  0.2511942  0.9962267  0.2349884

 Al 
  0.2500903  0.2482278  0.9986733

 Al 
  0.5183939  0.9902294  0.9904275

 Al 
  0.4944780  0.2537015  0.2323907

 Al 
  0.7414905  0.9800319  0.2453418

 Al 
  0.7653260  0.2525556  0.9999765

 Al 
  0.0064031  0.4956661  0.0109388

 Al 
  0.9796619  0.7553017  0.2521249

 Al 
  0.2338473  0.5014554  0.2548698

 Al 
  0.2533414  0.7573276  0.9968405

 Al 
  0.0188171  0.0062150  0.4916737

 Al 
  0.9943790  0.2706883  0.7568771

 Al 
  0.2360465  0.9904584  0.7264851

 Al 
  0.2469556  0.2429125  0.5162900

 Al 
  0.9929150  0.5232439  0.5009108

 Al 
  0.0147456  0.7485087  0.7666044

 Al 
  0.2462230  0.5061779  0.7585392

 Al 
  0.2390599  0.7501299  0.5027288

 Al 
  0.5051681  0.5093609  0.9911923

 Al 
  0.4871764  0.7540716  0.2549998

 Al 
  0.7335503  0.5007203  0.2497636

 Al 
  0.7619833  0.7712663  0.9875179

 Al 
  0.4966264  0.0043179  0.4971511

 Al 
  0.5138867  0.2298228  0.7560653

 Al 
  0.7671860  0.0022313  0.7531038

 Al 
  0.7568561  0.2296842  0.4970583

 Al 
  0.4858522  0.4837285  0.5240000

 Al 
  0.4783352  0.7376009  0.7339166

 Al 
  0.7524491  0.4960324  0.7493391

 Al 
  0.7452515  0.7597446  0.5159658

