32 
charge = 0 
 Al 
  0.0261274  0.9935672  0.9789812

 Al 
  0.0047621  0.2573387  0.2719841

 Al 
  0.2480211  0.9947837  0.2360155

 Al 
  0.2524231  0.2458950  0.9983281

 Al 
  0.5147740  0.9895698  0.9915821

 Al 
  0.4947391  0.2541161  0.2333758

 Al 
  0.7405982  0.9800988  0.2453084

 Al 
  0.7677776  0.2542770  0.9996114

 Al 
  0.0087397  0.4961376  0.0114536

 Al 
  0.9812522  0.7568982  0.2506930

 Al 
  0.2325665  0.5012908  0.2524095

 Al 
  0.2503329  0.7564786  0.9936525

 Al 
  0.0199062  0.0046891  0.4917257

 Al 
  0.9952960  0.2719593  0.7532449

 Al 
  0.2365328  0.9884981  0.7261905

 Al 
  0.2496213  0.2451562  0.5149955

 Al 
  0.9949903  0.5227291  0.5006980

 Al 
  0.0132073  0.7459198  0.7657368

 Al 
  0.2470459  0.5054465  0.7588152

 Al 
  0.2377469  0.7484827  0.5026137

 Al 
  0.5093609  0.5082991  0.9937899

 Al 
  0.4868398  0.7550765  0.2561643

 Al 
  0.7351988  0.5022635  0.2497612

 Al 
  0.7632877  0.7738256  0.9886342

 Al 
  0.4978887  0.0037572  0.4998342

 Al 
  0.5113126  0.2299800  0.7601790

 Al 
  0.7660957  0.0042201  0.7534875

 Al 
  0.7549020  0.2297485  0.4982835

 Al 
  0.4848708  0.4839166  0.5229023

 Al 
  0.4772920  0.7352532  0.7348275

 Al 
  0.7532288  0.4972056  0.7491609

 Al 
  0.7432590  0.7631194  0.5155586

