32 
charge = 0 
 Al 
  0.0261881  0.9932899  0.9782993

 Al 
  0.0033043  0.2567447  0.2709891

 Al 
  0.2455968  0.9937763  0.2369363

 Al 
  0.2541891  0.2441599  0.9979494

 Al 
  0.5117865  0.9890884  0.9924385

 Al 
  0.4949495  0.2543278  0.2342929

 Al 
  0.7399856  0.9805195  0.2453827

 Al 
  0.7695659  0.2554663  0.9994654

 Al 
  0.0103844  0.4966153  0.0117841

 Al 
  0.9827113  0.7580838  0.2495359

 Al 
  0.2318784  0.5012450  0.2505656

 Al 
  0.2482204  0.7556656  0.9914311

 Al 
  0.0203134  0.0034169  0.4917393

 Al 
  0.9962044  0.2726746  0.7503589

 Al 
  0.2372939  0.9872222  0.7263353

 Al 
  0.2516719  0.2470398  0.5139077

 Al 
  0.9964816  0.5220855  0.5006114

 Al 
  0.0117395  0.7438394  0.7647913

 Al 
  0.2475756  0.5046186  0.7590132

 Al 
  0.2368497  0.7471808  0.5022994

 Al 
  0.5124561  0.5074959  0.9958195

 Al 
  0.4865922  0.7556222  0.2570195

 Al 
  0.7365663  0.5034974  0.2498663

 Al 
  0.7641899  0.7753193  0.9894881

 Al 
  0.4988132  0.0032758  0.5018390

 Al 
  0.5092223  0.2302596  0.7632852

 Al 
  0.7652690  0.0057324  0.7536483

 Al 
  0.7533625  0.2299837  0.4992055

 Al 
  0.4842656  0.4840812  0.5217452

 Al 
  0.4768229  0.7338275  0.7357086

 Al 
  0.7537399  0.4982662  0.7490335

 Al 
  0.7418098  0.7655797  0.5152134

