32 
charge = 0 
 Al 
  0.0259603  0.9939050  0.9795728

 Al 
  0.0057076  0.2576915  0.2725348

 Al 
  0.2496300  0.9954953  0.2354685

 Al 
  0.2512425  0.2470670  0.9985261

 Al 
  0.5166502  0.9898978  0.9910042

 Al 
  0.4946055  0.2539255  0.2328474

 Al 
  0.7410363  0.9799960  0.2453059

 Al 
  0.7665536  0.2534280  0.9997698

 Al 
  0.0075813  0.4958740  0.0112024

 Al 
  0.9803995  0.7560962  0.2514306

 Al 
  0.2331617  0.5013588  0.2536496

 Al 
  0.2518254  0.7569403  0.9952304

 Al 
  0.0194359  0.0054861  0.4917059

 Al 
  0.9947923  0.2713640  0.7551062

 Al 
  0.2362111  0.9894498  0.7262673

 Al 
  0.2482649  0.2439817  0.5156688

 Al 
  0.9939545  0.5230372  0.5007883

 Al 
  0.0140401  0.7472526  0.7662294

 Al 
  0.2466487  0.5058648  0.7586790

 Al 
  0.2383929  0.7493255  0.5027152

 Al 
  0.5072571  0.5088374  0.9924645

 Al 
  0.4870068  0.7546099  0.2555814

 Al 
  0.7343436  0.5014739  0.2497438

 Al 
  0.7626429  0.7726177  0.9880662

 Al 
  0.4972551  0.0040518  0.4984840

 Al 
  0.5126405  0.2298723  0.7581011

 Al 
  0.7666465  0.0032152  0.7533204

 Al 
  0.7559007  0.2296817  0.4976660

 Al 
  0.4853435  0.4838189  0.5235186

 Al 
  0.4777598  0.7363720  0.7343312

 Al 
  0.7528501  0.4965806  0.7492488

 Al 
  0.7442565  0.7614301  0.5157715

