32 
charge = 0 
 Al 
  0.0261942  0.9933493  0.9784986

 Al 
  0.0037919  0.2569502  0.2713405

 Al 
  0.2464012  0.9941018  0.2366182

 Al 
  0.2536063  0.2447305  0.9980855

 Al 
  0.5127989  0.9892481  0.9921551

 Al 
  0.4948777  0.2542684  0.2339723

 Al 
  0.7401824  0.9803438  0.2453480

 Al 
  0.7689793  0.2550827  0.9995025

 Al 
  0.0098522  0.4964470  0.0116826

 Al 
  0.9822039  0.7576939  0.2499257

 Al 
  0.2320776  0.5012537  0.2511744

 Al 
  0.2489023  0.7559514  0.9921464

 Al 
  0.0202193  0.0038476  0.4917368

 Al 
  0.9958826  0.2724618  0.7513267

 Al 
  0.2370056  0.9876244  0.7262537

 Al 
  0.2509913  0.2464012  0.5142790

 Al 
  0.9959965  0.5223219  0.5006349

 Al 
  0.0122556  0.7445386  0.7651329

 Al 
  0.2474085  0.5049193  0.7589476

 Al 
  0.2371355  0.7476165  0.5024256

 Al 
  0.5114388  0.5077608  0.9951413

 Al 
  0.4866752  0.7554626  0.2567398

 Al 
  0.7361009  0.5030815  0.2498193

 Al 
  0.7639015  0.7748663  0.9892047

 Al 
  0.4985112  0.0034404  0.5011769

 Al 
  0.5099265  0.2301507  0.7622581

 Al 
  0.7655438  0.0052312  0.7536063

 Al 
  0.7538773  0.2298871  0.4989010

 Al 
  0.4844513  0.4840243  0.5221598

 Al 
  0.4769467  0.7342669  0.7353980

 Al 
  0.7535778  0.4978986  0.7490755

 Al 
  0.7422826  0.7647753  0.5153309

