32 
charge = 0 
 Al 
  0.0258403  0.9941166  0.9799069

 Al 
  0.0061655  0.2578523  0.2727711

 Al 
  0.2504195  0.9958591  0.2352198

 Al 
  0.2506609  0.2476499  0.9986065

 Al 
  0.5175412  0.9900624  0.9907146

 Al 
  0.4945411  0.2538179  0.2326098

 Al 
  0.7412616  0.9799973  0.2453195

 Al 
  0.7659386  0.2529949  0.9998663

 Al 
  0.0069935  0.4957626  0.0110712

 Al 
  0.9800158  0.7556977  0.2517846

 Al 
  0.2334946  0.5014034  0.2542634

 Al 
  0.2525828  0.7571432  0.9960336

 Al 
  0.0191439  0.0058611  0.4916910

 Al 
  0.9945745  0.2710348  0.7560047

 Al 
  0.2361096  0.9899485  0.7263588

 Al 
  0.2476028  0.2434323  0.5159868

 Al 
  0.9934335  0.5231536  0.5008453

 Al 
  0.0144089  0.7478912  0.7664311

 Al 
  0.2464395  0.5060344  0.7586097

 Al 
  0.2387246  0.7497327  0.5027325

 Al 
  0.5062089  0.5091023  0.9918209

 Al 
  0.4870910  0.7543488  0.2552893

 Al 
  0.7339389  0.5010915  0.2497488

 Al 
  0.7623137  0.7719593  0.9877890

 Al 
  0.4969383  0.0041891  0.4978145

 Al 
  0.5132753  0.2298401  0.7570764

 Al 
  0.7669175  0.0027202  0.7532189

 Al 
  0.7563846  0.2296743  0.4973603

 Al 
  0.4855935  0.4837731  0.5237773

 Al 
  0.4780357  0.7369747  0.7341134

 Al 
  0.7526521  0.4962960  0.7492934

 Al 
  0.7447564  0.7605849  0.5158717

