32 
charge = 0 
 Al 
  0.0251398  0.9951970  0.9814700

 Al 
  0.0078585  0.2583956  0.2734332

 Al 
  0.2534045  0.9973355  0.2344092

 Al 
  0.2484679  0.2499059  0.9987959

 Al 
  0.5207007  0.9907406  0.9895822

 Al 
  0.4943023  0.2533130  0.2318474

 Al 
  0.7421873  0.9803190  0.2454606

 Al 
  0.7635179  0.2512351  0.0003700

 Al 
  0.0046396  0.4954767  0.0105490

 Al 
  0.9787882  0.7541520  0.2530555

 Al 
  0.2350032  0.5016571  0.2566247

 Al 
  0.2555925  0.7577682  0.9992414

 Al 
  0.0176476  0.0071407  0.4916044

 Al 
  0.9939322  0.2695510  0.7593028

 Al 
  0.2360886  0.9920388  0.7270729

 Al 
  0.2451376  0.2415573  0.5171118

 Al 
  0.9913940  0.5233602  0.5011546

 Al 
  0.0155586  0.7502079  0.7669546

 Al 
  0.2455448  0.5064564  0.7583238

 Al 
  0.2400636  0.7512376  0.5025927

 Al 
  0.5021385  0.5100948  0.9894188

 Al 
  0.4874437  0.7531558  0.2541582

 Al 
  0.7324910  0.4996782  0.2498465

 Al 
  0.7609982  0.7690226  0.9867507

 Al 
  0.4957230  0.0046532  0.4952193

 Al 
  0.5155623  0.2298500  0.7531570

 Al 
  0.7679607  0.0008267  0.7526855

 Al 
  0.7581716  0.2298154  0.4961920

 Al 
  0.4866566  0.4836097  0.5244629

 Al 
  0.4793649  0.7395970  0.7334550

 Al 
  0.7518254  0.4953604  0.7494827

 Al 
  0.7466945  0.7572930  0.5162145

