32 
charge = 0 
 Al 
  0.0238367  0.9969222  0.9838510

 Al 
  0.0095985  0.2588548  0.2736090

 Al 
  0.2566284  0.9991770  0.2338251

 Al 
  0.2461487  0.2524677  0.9987550

 Al 
  0.5236572  0.9916229  0.9882568

 Al 
  0.4940436  0.2525729  0.2312942

 Al 
  0.7433630  0.9813128  0.2457960

 Al 
  0.7606628  0.2490867  0.0012190

 Al 
  0.0018093  0.4955089  0.0099748

 Al 
  0.9779541  0.7523984  0.2542733

 Al 
  0.2371417  0.5021224  0.2592743

 Al 
  0.2590800  0.7581469  0.0030011

 Al 
  0.0151985  0.0081506  0.4914509

 Al 
  0.9936092  0.2674187  0.7626380

 Al 
  0.2368682  0.9947206  0.7286867

 Al 
  0.2426093  0.2400624  0.5181674

 Al 
  0.9890884  0.5230533  0.5017177

 Al 
  0.0163247  0.7524838  0.7670227

 Al 
  0.2443505  0.5065022  0.7579340

 Al 
  0.2416601  0.7527895  0.5020073

 Al 
  0.4975187  0.5111059  0.9869004

 Al 
  0.4879635  0.7514195  0.2528885

 Al 
  0.7310913  0.4981870  0.2500854

 Al 
  0.7594438  0.7648706  0.9856851

 Al 
  0.4944000  0.0050307  0.4922603

 Al 
  0.5177788  0.2301186  0.7488305

 Al 
  0.7691290  0.9987265  0.7517536

 Al 
  0.7599908  0.2303364  0.4949124

 Al 
  0.4880253  0.4834662  0.5245805

 Al 
  0.4813982  0.7431798  0.7330862

 Al 
  0.7507685  0.4946240  0.7497599

 Al 
  0.7488553  0.7535605  0.5165029

