32 
charge = 0 
 Al 
  0.0232006  0.9976870  0.9849191

 Al 
  0.0101777  0.2589798  0.2734840

 Al 
  0.2577521  0.9999084  0.2337174

 Al 
  0.2453678  0.2534058  0.9986659

 Al 
  0.5245384  0.9919893  0.9877593

 Al 
  0.4939520  0.2522561  0.2311841

 Al 
  0.7438345  0.9818561  0.2459680

 Al 
  0.7595824  0.2482600  0.0016163

 Al 
  0.0007240  0.4956438  0.0097854

 Al 
  0.9778229  0.7517561  0.2546458

 Al 
  0.2380414  0.5023464  0.2602359

 Al 
  0.2603435  0.7581927  0.0043810

 Al 
  0.0140835  0.0083560  0.4913841

 Al 
  0.9936043  0.2665029  0.7637233

 Al 
  0.2373967  0.9957849  0.7295357

 Al 
  0.2417838  0.2397381  0.5184855

 Al 
  0.9882667  0.5227637  0.5019950

 Al 
  0.0164583  0.7532090  0.7668977

 Al 
  0.2438605  0.5064069  0.7577595

 Al 
  0.2422578  0.7533130  0.5016707

 Al 
  0.4958381  0.5114227  0.9860428

 Al 
  0.4882159  0.7506720  0.2524380

 Al 
  0.7306507  0.4976684  0.2502042

 Al 
  0.7588622  0.7630996  0.9853398

 Al 
  0.4939458  0.0051223  0.4911700

 Al 
  0.5184719  0.2302893  0.7472848

 Al 
  0.7695535  0.9979716  0.7513032

 Al 
  0.7605824  0.2306445  0.4944607

 Al 
  0.4885699  0.4834315  0.5244196

 Al 
  0.4822917  0.7446711  0.7330652

 Al 
  0.7503465  0.4944433  0.7498886

 Al 
  0.7496188  0.7522103  0.5165710

