32 
charge = 0 
 Al 
  0.0225038  0.9984815  0.9860514

 Al 
  0.0106950  0.2590750  0.2732501

 Al 
  0.2587916  0.0006411  0.2336766

 Al 
  0.2446686  0.2543018  0.9985409

 Al 
  0.5252611  0.9923655  0.9872766

 Al 
  0.4938654  0.2519294  0.2311296

 Al 
  0.7443097  0.9824687  0.2461549

 Al 
  0.7585330  0.2474531  0.0020432

 Al 
  0.9996621  0.4958480  0.0096220

 Al 
  0.9777957  0.7511410  0.2549552

 Al 
  0.2389609  0.5025890  0.2611504

 Al 
  0.2615254  0.7581877  0.0056841

 Al 
  0.0129053  0.0084488  0.4913210

 Al 
  0.9936563  0.2655512  0.7646763

 Al 
  0.2380365  0.9968405  0.7304923

 Al 
  0.2410598  0.2395636  0.5187478

 Al 
  0.9875043  0.5223788  0.5023006

 Al 
  0.0165116  0.7538389  0.7666972

 Al 
  0.2433630  0.5062633  0.7575726

 Al 
  0.2428308  0.7537894  0.5012858

 Al 
  0.4942466  0.5116875  0.9852643

 Al 
  0.4885018  0.7498998  0.2520209

 Al 
  0.7302733  0.4971870  0.2503341

 Al 
  0.7583003  0.7612717  0.9850403

 Al 
  0.4935350  0.0051817  0.4901267

 Al 
  0.5190647  0.2304898  0.7458356

 Al 
  0.7699532  0.9972588  0.7508106

 Al 
  0.7610985  0.2310096  0.4940424

 Al 
  0.4891107  0.4834142  0.5241498

 Al 
  0.4832224  0.7461883  0.7331060

 Al 
  0.7499270  0.4943171  0.7500309

 Al 
  0.7503230  0.7509368  0.5166081

