32 
charge = 0 
 Al 
  0.0241300  0.9965534  0.9833412

 Al 
  0.0092854  0.2587805  0.2736313

 Al 
  0.2560306  0.9988107  0.2339043

 Al 
  0.2465707  0.2519801  0.9987860

 Al 
  0.5231548  0.9914423  0.9885129

 Al 
  0.4940919  0.2527288  0.2313722

 Al 
  0.7431278  0.9810702  0.2457180

 Al 
  0.7612160  0.2495075  0.0010321

 Al 
  0.0023613  0.4954668  0.0100787

 Al 
  0.9780617  0.7527325  0.2540642

 Al 
  0.2366999  0.5020172  0.2587731

 Al 
  0.2584179  0.7581023  0.0022821

 Al 
  0.0157307  0.0080046  0.4914831

 Al 
  0.9936365  0.2678642  0.7620440

 Al 
  0.2366479  0.9941847  0.7283043

 Al 
  0.2430622  0.2402827  0.5179867

 Al 
  0.9895216  0.5231635  0.5015903

 Al 
  0.0162244  0.7520841  0.7670548

 Al 
  0.2445943  0.5065281  0.7580157

 Al 
  0.2413519  0.7525073  0.5021546

 Al 
  0.4983949  0.5109277  0.9873595

 Al 
  0.4878484  0.7517833  0.2531261

 Al 
  0.7313351  0.4984617  0.2500309

 Al 
  0.7597433  0.7657344  0.9858745

 Al 
  0.4946438  0.0049725  0.4928246

 Al 
  0.5173927  0.2300455  0.7496411

 Al 
  0.7689087  0.9991213  0.7519615

 Al 
  0.7596666  0.2302027  0.4951512

 Al 
  0.4877518  0.4834884  0.5246176

 Al 
  0.4809663  0.7424459  0.7331234

 Al 
  0.7509801  0.4947366  0.7497005

 Al 
  0.7484518  0.7542659  0.5164596

