32 
charge = 0 
 Al 
  0.0190585  0.0018873  0.9913074

 Al 
  0.0122383  0.2591988  0.2712613

 Al 
  0.2622506  0.0036669  0.2341196

 Al 
  0.2426204  0.2575850  0.9977711

 Al 
  0.5267722  0.9939904  0.9854562

 Al 
  0.4935585  0.2505705  0.2314192

 Al 
  0.7463071  0.9855453  0.2470212

 Al 
  0.7545122  0.2443654  0.0040357

 Al 
  0.9955213  0.4973615  0.0092248

 Al 
  0.9786434  0.7488590  0.2556680

 Al 
  0.2428444  0.5037102  0.2644622

 Al 
  0.2654002  0.7577966  0.0101641

 Al 
  0.0076370  0.0077063  0.4911551

 Al 
  0.9942825  0.2613484  0.7673184

 Al 
  0.2416106  0.0010272  0.7354265

 Al 
  0.2390352  0.2402913  0.5192998

 Al 
  0.9850267  0.5198456  0.5038142

 Al 
  0.0161242  0.7556062  0.7652591

 Al 
  0.2412814  0.5053599  0.7566098

 Al 
  0.2449124  0.7553624  0.4993354

 Al 
  0.4886194  0.5121776  0.9827830

 Al 
  0.4901577  0.7465571  0.2507029

 Al 
  0.7292919  0.4955175  0.2509405

 Al 
  0.7561556  0.7533204  0.9842916

 Al 
  0.4923110  0.0051408  0.4862829

 Al 
  0.5205770  0.2315442  0.7407628

 Al 
  0.7713405  0.9947366  0.7484271

 Al 
  0.7624610  0.2330887  0.4926328

 Al 
  0.4912950  0.4835639  0.5220323

 Al 
  0.4873224  0.7525828  0.7338201

 Al 
  0.7482488  0.4941983  0.7507784

 Al 
  0.7525816  0.7464841  0.5164150

