32 
charge = 0 
 Al 
  0.0180127  0.0027833  0.9928320

 Al 
  0.0125093  0.2591679  0.2704977

 Al 
  0.2629709  0.0044639  0.2343696

 Al 
  0.2422838  0.2583597  0.9975286

 Al 
  0.5268415  0.9944334  0.9850193

 Al 
  0.4934892  0.2502277  0.2316123

 Al 
  0.7468467  0.9864623  0.2472613

 Al 
  0.7535271  0.2436179  0.0046025

 Al 
  0.9944817  0.4979159  0.0091864

 Al 
  0.9790827  0.7483070  0.2557299

 Al 
  0.2438753  0.5040171  0.2652344

 Al 
  0.2661465  0.7576320  0.0111133

 Al 
  0.0061940  0.0072459  0.4911502

 Al 
  0.9945102  0.2601814  0.7677145

 Al 
  0.2427479  0.0020828  0.7369499

 Al 
  0.2387159  0.2408111  0.5193184

 Al 
  0.9845453  0.5189421  0.5042696

 Al 
  0.0159138  0.7558957  0.7647579

 Al 
  0.2407307  0.5050827  0.7562955

 Al 
  0.2453926  0.7557039  0.4987587

 Al 
  0.4873620  0.5121454  0.9822942

 Al 
  0.4907418  0.7456574  0.2504628

 Al 
  0.7291656  0.4951413  0.2511138

 Al 
  0.7556161  0.7511497  0.9842161

 Al 
  0.4921130  0.0050691  0.4853757

 Al 
  0.5207700  0.2318660  0.7396255

 Al 
  0.7716338  0.9941698  0.7477291

 Al 
  0.7626343  0.2337805  0.4923345

 Al 
  0.4918618  0.4836753  0.5212428

 Al 
  0.4884511  0.7542783  0.7341221

 Al 
  0.7478244  0.4942367  0.7510210

 Al 
  0.7530135  0.7454953  0.5162640

