32 
charge = 0 
 Al 
  0.0200250  0.0010061  0.9898730

 Al 
  0.0119227  0.2592038  0.2719172

 Al 
  0.2614772  0.0028885  0.2339228

 Al 
  0.2430263  0.2567979  0.9979976

 Al 
  0.5265853  0.9935634  0.9858992

 Al 
  0.4936303  0.2509158  0.2312732

 Al 
  0.7457861  0.9846864  0.2467898

 Al 
  0.7555022  0.2451215  0.0034961

 Al 
  0.9965546  0.4968776  0.0092879

 Al 
  0.9782932  0.7494146  0.2555616

 Al 
  0.2418383  0.5034107  0.2636726

 Al 
  0.2645624  0.7579402  0.0091493

 Al 
  0.0090317  0.0080565  0.4911774

 Al 
  0.9940770  0.2624660  0.7668209

 Al 
  0.2405698  0.9999790  0.7340218

 Al 
  0.2394238  0.2399027  0.5192330

 Al 
  0.9855638  0.5206364  0.5033909

 Al 
  0.0162950  0.7552621  0.7657059

 Al 
  0.2418185  0.5056222  0.7568907

 Al 
  0.2444186  0.7550059  0.4998787

 Al 
  0.4899312  0.5121442  0.9833201

 Al 
  0.4896515  0.7474308  0.2509801

 Al 
  0.7294639  0.4959074  0.2507760

 Al 
  0.7566878  0.7554156  0.9844129

 Al 
  0.4925536  0.0051903  0.4872061

 Al 
  0.5203146  0.2312460  0.7419435

 Al 
  0.7710262  0.9953257  0.7490854

 Al 
  0.7622222  0.2324699  0.4929508

 Al 
  0.4907393  0.4834872  0.5227167

 Al 
  0.4862383  0.7509294  0.7335652

 Al 
  0.7486696  0.4941822  0.7505594

 Al 
  0.7520977  0.7475162  0.5165215

