32 
charge = 0 
 Al 
  0.0217440  0.9993008  0.9872519

 Al 
  0.0111554  0.2591431  0.2729110

 Al 
  0.2597532  0.0013786  0.2337001

 Al 
  0.2440473  0.2551619  0.9983850

 Al 
  0.5258378  0.9927516  0.9868076

 Al 
  0.4937837  0.2515965  0.2311284

 Al 
  0.7447911  0.9831469  0.2463554

 Al 
  0.7575058  0.2466635  0.0024999

 Al 
  0.9986189  0.4961215  0.0094847

 Al 
  0.9778674  0.7505495  0.2552089

 Al 
  0.2399003  0.5028489  0.2620229

 Al 
  0.2626219  0.7581407  0.0069118

 Al 
  0.0116690  0.0084290  0.4912628

 Al 
  0.9937577  0.2645636  0.7655054

 Al 
  0.2387815  0.9978900  0.7315591

 Al 
  0.2404299  0.2395364  0.5189595

 Al 
  0.9868014  0.5218987  0.5026348

 Al 
  0.0164967  0.7543859  0.7664286

 Al 
  0.2428580  0.5060801  0.7573672

 Al 
  0.2433803  0.7542250  0.5008564

 Al 
  0.4927380  0.5118967  0.9845552

 Al 
  0.4888310  0.7491015  0.2516398

 Al 
  0.7299527  0.4967365  0.2504727

 Al 
  0.7577546  0.7593857  0.9847879

 Al 
  0.4931662  0.0052114  0.4891231

 Al 
  0.5195634  0.2307163  0.7444693

 Al 
  0.7703319  0.9965831  0.7502772

 Al 
  0.7615427  0.2314341  0.4936525

 Al 
  0.4896503  0.4834154  0.5237748

 Al 
  0.4841901  0.7477353  0.7332050

 Al 
  0.7495087  0.4942354  0.7501893

 Al 
  0.7509702  0.7497364  0.5166143

