32 
charge = 0 
 Al 
  0.0137246  0.0059774  0.9988998

 Al 
  0.0131182  0.2588659  0.2669831

 Al 
  0.2650673  0.0073734  0.2356356

 Al 
  0.2416378  0.2609957  0.9966004

 Al 
  0.5261967  0.9960646  0.9835664

 Al 
  0.4932825  0.2490966  0.2326791

 Al 
  0.7489010  0.9900884  0.2481350

 Al 
  0.7501163  0.2411081  0.0067410

 Al 
  0.9907764  0.5003700  0.0092013

 Al 
  0.9812980  0.7463653  0.2556235

 Al 
  0.2476610  0.5051074  0.2677986

 Al 
  0.2679273  0.7569724  0.0138929

 Al 
  0.0008762  0.0048166  0.4913012

 Al 
  0.9953765  0.2557114  0.7683159

 Al 
  0.2474234  0.0058425  0.7432045

 Al 
  0.2380736  0.2436018  0.5190015

 Al 
  0.9833139  0.5148545  0.5060962

 Al 
  0.0149448  0.7565257  0.7626330

 Al 
  0.2387011  0.5040889  0.7548710

 Al 
  0.2469791  0.7568388  0.4965435

 Al 
  0.4834167  0.5114660  0.9809341

 Al 
  0.4934805  0.7423655  0.2499208

 Al 
  0.7291112  0.4938803  0.2517611

 Al 
  0.7536112  0.7430164  0.9843362

 Al 
  0.4918086  0.0046433  0.4823449

 Al 
  0.5209358  0.2331320  0.7359660

 Al 
  0.7724222  0.9923766  0.7450188

 Al 
  0.7627172  0.2367655  0.4914385

 Al 
  0.4939409  0.4843980  0.5176613

 Al 
  0.4927219  0.7604624  0.7355032

 Al 
  0.7463442  0.4944842  0.7520791

 Al 
  0.7540939  0.7423444  0.5153124

