32 
charge = 0 
 Al 
  0.0143953  0.0055245  0.9979679

 Al 
  0.0130649  0.2589278  0.2675622

 Al 
  0.2648111  0.0069514  0.2354215

 Al 
  0.2416786  0.2606257  0.9967353

 Al 
  0.5263700  0.9958269  0.9837619

 Al 
  0.4933085  0.2492463  0.2324910

 Al 
  0.7485929  0.9895376  0.2480088

 Al 
  0.7505953  0.2414509  0.0064254

 Al 
  0.9913074  0.4999777  0.0091864

 Al 
  0.9809205  0.7466437  0.2556668

 Al 
  0.2471091  0.5049552  0.2674472

 Al 
  0.2677603  0.7570690  0.0135501

 Al 
  0.0016497  0.0052361  0.4912628

 Al 
  0.9952539  0.2563809  0.7683035

 Al 
  0.2466969  0.0053017  0.7422293

 Al 
  0.2381244  0.2431192  0.5190845

 Al 
  0.9834427  0.5155240  0.5058153

 Al 
  0.0150995  0.7564687  0.7629672

 Al 
  0.2389981  0.5042263  0.7551074

 Al 
  0.2467613  0.7566804  0.4968714

 Al 
  0.4839327  0.5116207  0.9810950

 Al 
  0.4930189  0.7428419  0.2499691

 Al 
  0.7290802  0.4940572  0.2516670

 Al 
  0.7539119  0.7442156  0.9842805

 Al 
  0.4918110  0.0047188  0.4827608

 Al 
  0.5209581  0.2329402  0.7364574

 Al 
  0.7723368  0.9926118  0.7454247

 Al 
  0.7627556  0.2362878  0.4915524

 Al 
  0.4936352  0.4842582  0.5182479

 Al 
  0.4920858  0.7595651  0.7352780

 Al 
  0.7465522  0.4944421  0.7519083

 Al 
  0.7539812  0.7427652  0.5154918

