32 
charge = 0 
 Al 
  0.0123311  0.0068697  0.0008168

 Al 
  0.0131912  0.2587248  0.2657591

 Al 
  0.2655302  0.0082125  0.2360910

 Al 
  0.2416093  0.2617247  0.9963343

 Al 
  0.5257735  0.9965361  0.9831927

 Al 
  0.4932380  0.2488169  0.2330924

 Al 
  0.7495310  0.9912108  0.2483837

 Al 
  0.7491745  0.2404497  0.0073722

 Al 
  0.9897196  0.5011856  0.0092396

 Al 
  0.9821086  0.7458109  0.2555096

 Al 
  0.2487662  0.5053982  0.2684780

 Al 
  0.2681662  0.7567868  0.0145178

 Al 
  0.9993342  0.0039156  0.4913977

 Al 
  0.9956104  0.2543500  0.7682689

 Al 
  0.2489196  0.0069180  0.7452205

 Al 
  0.2380105  0.2446376  0.5187998

 Al 
  0.9831048  0.5134375  0.5066717

 Al 
  0.0146243  0.7566073  0.7619437

 Al 
  0.2381045  0.5038265  0.7543649

 Al 
  0.2474061  0.7571543  0.4958839

 Al 
  0.4824439  0.5110997  0.9806470

 Al 
  0.4944730  0.7414187  0.2498515

 Al 
  0.7292151  0.4935325  0.2519479

 Al 
  0.7529937  0.7406081  0.9844909

 Al 
  0.4918482  0.0044800  0.4815368

 Al 
  0.5208480  0.2335256  0.7350193

 Al 
  0.7725620  0.9919299  0.7442008

 Al 
  0.7625934  0.2377655  0.4912269

 Al 
  0.4945560  0.4847161  0.5164262

 Al 
  0.4940102  0.7622482  0.7359710

 Al 
  0.7459321  0.4945696  0.7524380

 Al 
  0.7542721  0.7415338  0.5149077

