32 
charge = 0 
 Al 
  0.0116120  0.0073053  0.0017969

 Al 
  0.0132097  0.2586468  0.2651168

 Al 
  0.2657344  0.0086270  0.2363311

 Al 
  0.2416205  0.2620836  0.9962044

 Al 
  0.5255247  0.9967687  0.9830182

 Al 
  0.4932194  0.2486894  0.2333139

 Al 
  0.7498490  0.9917789  0.2485050

 Al 
  0.7487142  0.2401354  0.0076853

 Al 
  0.9891986  0.5016026  0.0092619

 Al 
  0.9825380  0.7455361  0.2554403

 Al 
  0.2493169  0.5055369  0.2688048

 Al 
  0.2682355  0.7566977  0.0148000

 Al 
  0.9985706  0.0034379  0.4914534

 Al 
  0.9957205  0.2536632  0.7682107

 Al 
  0.2496844  0.0074514  0.7462576

 Al 
  0.2379969  0.2451871  0.5186798

 Al 
  0.9830268  0.5126937  0.5069650

 Al 
  0.0144597  0.7566346  0.7615898

 Al 
  0.2378063  0.5037028  0.7540951

 Al 
  0.2476140  0.7573103  0.4955559

 Al 
  0.4819898  0.5108868  0.9805208

 Al 
  0.4950027  0.7409522  0.2498317

 Al 
  0.7292882  0.4933592  0.2520395

 Al 
  0.7526768  0.7394065  0.9845886

 Al 
  0.4918903  0.0043909  0.4811482

 Al 
  0.5207824  0.2337248  0.7345664

 Al 
  0.7726127  0.9917207  0.7437911

 Al 
  0.7625080  0.2382852  0.4911279

 Al 
  0.4948666  0.4848955  0.5157802

 Al 
  0.4946599  0.7631330  0.7362136

 Al 
  0.7457304  0.4946117  0.7526236

 Al 
  0.7543401  0.7411452  0.5146824

