32 
charge = 0 
 Al 
  0.0174608  0.0032375  0.9936303

 Al 
  0.0126293  0.2591431  0.2700757

 Al 
  0.2633112  0.0048698  0.2345144

 Al 
  0.2421402  0.2587434  0.9974011

 Al 
  0.5268328  0.9946587  0.9848040

 Al 
  0.4934558  0.2500582  0.2317286

 Al 
  0.7471239  0.9869425  0.2473838

 Al 
  0.7530345  0.2432479  0.0048946

 Al 
  0.9939582  0.4982191  0.0091741

 Al 
  0.9793352  0.7480310  0.2557448

 Al 
  0.2444000  0.5041743  0.2656143

 Al 
  0.2664831  0.7575442  0.0115625

 Al 
  0.0054564  0.0069761  0.4911551

 Al 
  0.9946302  0.2595775  0.7678741

 Al 
  0.2433518  0.0026137  0.7377568

 Al 
  0.2385798  0.2411193  0.5193097

 Al 
  0.9843250  0.5184459  0.5045084

 Al 
  0.0157950  0.7560207  0.7644881

 Al 
  0.2404497  0.5049416  0.7561235

 Al 
  0.2456277  0.7558710  0.4984580

 Al 
  0.4867544  0.5121034  0.9820665

 Al 
  0.4910648  0.7451983  0.2503564

 Al 
  0.7291211  0.4949569  0.2512029

 Al 
  0.7553426  0.7500359  0.9841963

 Al 
  0.4920313  0.0050245  0.4849290

 Al 
  0.5208406  0.2320331  0.7390736

 Al 
  0.7717700  0.9938951  0.7473652

 Al 
  0.7626949  0.2341530  0.4921935

 Al 
  0.4921489  0.4837446  0.5208084

 Al 
  0.4890315  0.7551408  0.7342891

 Al 
  0.7476115  0.4942627  0.7511522

 Al 
  0.7532090  0.7450163  0.5161688

