32 
charge = 0 
 Al 
  0.0130352  0.0064267  0.9998503

 Al 
  0.0131615  0.2587978  0.2663816

 Al 
  0.2653074  0.0077942  0.2358596

 Al 
  0.2416155  0.2613621  0.9964668

 Al 
  0.5259975  0.9963009  0.9833758

 Al 
  0.4932602  0.2489530  0.2328796

 Al 
  0.7492141  0.9906465  0.2482600

 Al 
  0.7496423  0.2407740  0.0070566

 Al 
  0.9902455  0.5007735  0.0092186

 Al 
  0.9816952  0.7460868  0.2555703

 Al 
  0.2482142  0.5052547  0.2681414

 Al 
  0.2680635  0.7568784  0.0142159

 Al 
  0.0001040  0.0043760  0.4913470

 Al 
  0.9954953  0.2550332  0.7683035

 Al 
  0.2481647  0.0063821  0.7442020

 Al 
  0.2380365  0.2441092  0.5189075

 Al 
  0.9832001  0.5141577  0.5063821

 Al 
  0.0147852  0.7565715  0.7622915

 Al 
  0.2384028  0.5039552  0.7546235

 Al 
  0.2471944  0.7569972  0.4962131

 Al 
  0.4829204  0.5112928  0.9807844

 Al 
  0.4939644  0.7418903  0.2498812

 Al 
  0.7291570  0.4937058  0.2518551

 Al 
  0.7533055  0.7418123  0.9844067

 Al 
  0.4918209  0.0045641  0.4819365

 Al 
  0.5208987  0.2333276  0.7354859

 Al 
  0.7724976  0.9921489  0.7446104

 Al 
  0.7626640  0.2372593  0.4913296

 Al 
  0.4942478  0.4845503  0.5170536

 Al 
  0.4933642  0.7613571  0.7357334

 Al 
  0.7461363  0.4945275  0.7522561

 Al 
  0.7541904  0.7419336  0.5151181

