32 
charge = 0 
 Al 
  0.0156812  0.0046099  0.9961648

 Al 
  0.0129239  0.2590330  0.2686464

 Al 
  0.2642530  0.0061111  0.2350243

 Al 
  0.2418123  0.2598795  0.9970063

 Al 
  0.5266373  0.9953542  0.9841691

 Al 
  0.4933630  0.2495607  0.2321482

 Al 
  0.7479890  0.9884634  0.2477575

 Al 
  0.7515655  0.2421563  0.0058017

 Al 
  0.9923717  0.4992290  0.0091691

 Al 
  0.9802238  0.7471994  0.2557274

 Al 
  0.2460113  0.5046458  0.2667281

 Al 
  0.2673345  0.7572620  0.0128088

 Al 
  0.0031904  0.0060071  0.4912022

 Al 
  0.9950027  0.2576939  0.7682058

 Al 
  0.2452973  0.0042226  0.7403557

 Al 
  0.2382642  0.2422318  0.5192107

 Al 
  0.9837496  0.5167813  0.5052720

 Al 
  0.0153965  0.7563239  0.7636070

 Al 
  0.2395871  0.5045097  0.7555468

 Al 
  0.2463158  0.7563598  0.4975199

 Al 
  0.4850144  0.5118707  0.9814514

 Al 
  0.4921662  0.7437936  0.2500953

 Al 
  0.7290592  0.4944124  0.2514789

 Al 
  0.7544985  0.7465868  0.9842087

 Al 
  0.4918593  0.0048562  0.4836122

 Al 
  0.5209581  0.2325652  0.7374734

 Al 
  0.7721363  0.9931055  0.7462217

 Al 
  0.7627803  0.2353807  0.4917950

 Al 
  0.4930313  0.4840181  0.5193481

 Al 
  0.4908358  0.7577781  0.7348547

 Al 
  0.7469742  0.4943629  0.7515853

 Al 
  0.7537139  0.7436365  0.5158061

