32 
charge = 0 
 Al 
  0.0162950  0.0041508  0.9952960

 Al 
  0.0128360  0.2590763  0.2691488

 Al 
  0.2639535  0.0056940  0.2348423

 Al 
  0.2419039  0.2595032  0.9971400

 Al 
  0.5267301  0.9951203  0.9843782

 Al 
  0.4933927  0.2497228  0.2319959

 Al 
  0.7476957  0.9879437  0.2476313

 Al 
  0.7520531  0.2425165  0.0054948

 Al 
  0.9929026  0.4988763  0.0091666

 Al 
  0.9799057  0.7474766  0.2557435

 Al 
  0.2454693  0.5044886  0.2663606

 Al 
  0.2670771  0.7573585  0.0124103

 Al 
  0.0039540  0.0063561  0.4911811

 Al 
  0.9948777  0.2583337  0.7681204

 Al 
  0.2446265  0.0036842  0.7394597

 Al 
  0.2383545  0.2418308  0.5192565

 Al 
  0.9839265  0.5173655  0.5050097

 Al 
  0.0155364  0.7562348  0.7639114

 Al 
  0.2398780  0.5046532  0.7557497

 Al 
  0.2460893  0.7561990  0.4978392

 Al 
  0.4855799  0.5119660  0.9816445

 Al 
  0.4917764  0.7442651  0.2501733

 Al 
  0.7290666  0.4945919  0.2513861

 Al 
  0.7547844  0.7477526  0.9841914

 Al 
  0.4919039  0.0049181  0.4840466

 Al 
  0.5209346  0.2323833  0.7379969

 Al 
  0.7720212  0.9933630  0.7466103

 Al 
  0.7627692  0.2349537  0.4919237

 Al 
  0.4927343  0.4839154  0.5198604

 Al 
  0.4902245  0.7568920  0.7346555

 Al 
  0.7471870  0.4943258  0.7514343

 Al 
  0.7535592  0.7440869  0.5159410

