32 
charge = 0 
 Al 
  0.0055814  0.0103089  0.0097990

 Al 
  0.0129078  0.2578659  0.2595354

 Al 
  0.2666539  0.0116591  0.2383892

 Al 
  0.2422776  0.2647233  0.9953616

 Al 
  0.5227959  0.9984580  0.9820454

 Al 
  0.4931600  0.2480273  0.2353968

 Al 
  0.7523959  0.9962415  0.2493664

 Al 
  0.7454705  0.2381998  0.0099624

 Al 
  0.9854413  0.5049032  0.0094859

 Al 
  0.9863831  0.7434719  0.2546607

 Al 
  0.2534330  0.5063722  0.2709792

 Al 
  0.2675808  0.7561804  0.0162975

 Al 
  0.9930003  0.9992154  0.4920647

 Al 
  0.9963059  0.2482550  0.7669967

 Al 
  0.2558747  0.0114326  0.7548141

 Al 
  0.2382617  0.2499790  0.5172925

 Al 
  0.9830330  0.5062089  0.5092731

 Al 
  0.0131553  0.7565875  0.7587211

 Al 
  0.2355626  0.5030036  0.7516435

 Al 
  0.2491151  0.7585280  0.4931476

 Al 
  0.4792337  0.5085417  0.9799515

 Al 
  0.4998998  0.7375860  0.2499579

 Al 
  0.7303908  0.4920449  0.2526608

 Al 
  0.7499616  0.7304218  0.9859005

 Al 
  0.4927652  0.0035852  0.4785394

 Al 
  0.5198369  0.2353658  0.7315541

 Al 
  0.7725187  0.9904200  0.7407208

 Al 
  0.7613410  0.2426860  0.4905463

 Al 
  0.4973009  0.4868088  0.5101988

 Al 
  0.4997500  0.7696228  0.7381998

 Al 
  0.7442701  0.4948159  0.7541768

 Al 
  0.7543401  0.7384808  0.5123608

