32 
charge = 0 
 Al 
  0.0086308  0.0089327  0.0057992

 Al 
  0.0131590  0.2582855  0.2623954

 Al 
  0.2663618  0.0102235  0.2373434

 Al 
  0.2418284  0.2634622  0.9957304

 Al 
  0.5243082  0.9976585  0.9824217

 Al 
  0.4931674  0.2482699  0.2342978

 Al 
  0.7511361  0.9940535  0.2489654

 Al 
  0.7469816  0.2390241  0.0088906

 Al 
  0.9872024  0.5032932  0.0093696

 Al 
  0.9843894  0.7444656  0.2550926

 Al 
  0.2514578  0.5060220  0.2700027

 Al 
  0.2681761  0.7563908  0.0157170

 Al 
  0.9956326  0.0013873  0.4917294

 Al 
  0.9960881  0.2509146  0.7677578

 Al 
  0.2527994  0.0095218  0.7505173

 Al 
  0.2380526  0.2475286  0.5180796

 Al 
  0.9828907  0.5095391  0.5081407

 Al 
  0.0137976  0.7566606  0.7601480

 Al 
  0.2366430  0.5032833  0.7529244

 Al 
  0.2484023  0.7579278  0.4942886

 Al 
  0.4804044  0.5098473  0.9801359

 Al 
  0.4973219  0.7391676  0.2498366

 Al 
  0.7297238  0.4926848  0.2523811

 Al 
  0.7513588  0.7347198  0.9851270

 Al 
  0.4922095  0.0040072  0.4797201

 Al 
  0.5203975  0.2345404  0.7329130

 Al 
  0.7726845  0.9909819  0.7421885

 Al 
  0.7620229  0.2404522  0.4907901

 Al 
  0.4961004  0.4857507  0.5130526

 Al 
  0.4972489  0.7665425  0.7372110

 Al 
  0.7449619  0.4947515  0.7533983

 Al 
  0.7544565  0.7397109  0.5136330

