32 
charge = 0 
 Al 
  0.0063437  0.0099921  0.0088077

 Al 
  0.0129895  0.2579749  0.2602557

 Al 
  0.2666130  0.0113187  0.2381281

 Al 
  0.2421452  0.2644213  0.9954421

 Al 
  0.5231981  0.9982674  0.9821160

 Al 
  0.4931575  0.2480706  0.2351134

 Al 
  0.7520865  0.9957081  0.2492723

 Al 
  0.7458257  0.2383756  0.0097099

 Al 
  0.9858534  0.5045146  0.0094575

 Al 
  0.9858757  0.7437119  0.2547745

 Al 
  0.2529602  0.5062980  0.2707589

 Al 
  0.2677788  0.7562237  0.0161824

 Al 
  0.9936228  0.9997624  0.4919769

 Al 
  0.9962675  0.2489060  0.7672133

 Al 
  0.2551173  0.0109735  0.7537461

 Al 
  0.2381961  0.2493651  0.5175053

 Al 
  0.9829724  0.5070492  0.5089983

 Al 
  0.0133125  0.7566123  0.7590726

 Al 
  0.2358225  0.5030593  0.7519714

 Al 
  0.2489444  0.7583795  0.4934174

 Al 
  0.4794862  0.5088906  0.9799787

 Al 
  0.4992352  0.7379585  0.2499183

 Al 
  0.7302027  0.4922009  0.2525976

 Al 
  0.7503193  0.7314477  0.9856851

 Al 
  0.4926043  0.0036929  0.4788092

 Al 
  0.5199916  0.2351592  0.7318635

 Al 
  0.7725830  0.9905438  0.7410697

 Al 
  0.7615279  0.2421279  0.4905982

 Al 
  0.4970063  0.4865267  0.5109178

 Al 
  0.4991374  0.7688902  0.7379573

 Al 
  0.7444347  0.4948097  0.7539862

 Al 
  0.7543909  0.7387691  0.5126986

