32 
charge = 0 
 Al 
  0.0078697  0.0093028  0.0068066

 Al 
  0.0131157  0.2581852  0.2616875

 Al 
  0.2664682  0.0105997  0.2376046

 Al 
  0.2419200  0.2637902  0.9956265

 Al 
  0.5239555  0.9978689  0.9823041

 Al 
  0.4931612  0.2481919  0.2345639

 Al 
  0.7514554  0.9946129  0.2490718

 Al 
  0.7465819  0.2387877  0.0091741

 Al 
  0.9867358  0.5037077  0.0093993

 Al 
  0.9848782  0.7442094  0.2549911

 Al 
  0.2519714  0.5061235  0.2702688

 Al 
  0.2680758  0.7563289  0.0158940

 Al 
  0.9949408  0.0008502  0.4918098

 Al 
  0.9961574  0.2502364  0.7675944

 Al 
  0.2535778  0.0100168  0.7515952

 Al 
  0.2380909  0.2481375  0.5178989

 Al 
  0.9829006  0.5087162  0.5084315

 Al 
  0.0136342  0.7566507  0.7597866

 Al 
  0.2363633  0.5031991  0.7526125

 Al 
  0.2485879  0.7580800  0.4939879

 Al 
  0.4800715  0.5095441  0.9800715

 Al 
  0.4979456  0.7387493  0.2498577

 Al 
  0.7298686  0.4925214  0.2524578

 Al 
  0.7510173  0.7335986  0.9852978

 Al 
  0.4923271  0.0039045  0.4793995

 Al 
  0.5202725  0.2347458  0.7325442

 Al 
  0.7726660  0.9908247  0.7418049

 Al 
  0.7618695  0.2410091  0.4907208

 Al 
  0.4964049  0.4859970  0.5123459

 Al 
  0.4978862  0.7673494  0.7374623

 Al 
  0.7447812  0.4947762  0.7535951

 Al 
  0.7544490  0.7393842  0.5133347

