32 
charge = 0 
 Al 
  0.0004034  0.0119450  0.0163989

 Al 
  0.0119982  0.2570690  0.2545295

 Al 
  0.2663247  0.0136850  0.2401601

 Al 
  0.2435189  0.2665611  0.9950634

 Al 
  0.5196488  0.9996238  0.9820875

 Al 
  0.4932578  0.2480595  0.2374944

 Al 
  0.7543760  0.9996386  0.2499158

 Al 
  0.7434323  0.2376145  0.0113546

 Al 
  0.9831778  0.5071977  0.0096555

 Al 
  0.9900030  0.7419682  0.2537894

 Al 
  0.2563140  0.5066024  0.2720336

 Al 
  0.2653879  0.7560603  0.0165809

 Al 
  0.9894263  0.9954520  0.4927132

 Al 
  0.9962749  0.2440189  0.7650884

 Al 
  0.2608089  0.0142839  0.7619945

 Al 
  0.2389424  0.2541322  0.5155029

 Al 
  0.9838671  0.5003143  0.5109908

 Al 
  0.0121430  0.7563413  0.7564106

 Al 
  0.2339897  0.5028848  0.7492822

 Al 
  0.2502030  0.7595441  0.4915970

 Al 
  0.4782164  0.5057522  0.9801074

 Al 
  0.5048203  0.7354809  0.2503403

 Al 
  0.7321135  0.4910190  0.2529305

 Al 
  0.7473046  0.7243453  0.9878397

 Al 
  0.4942441  0.0027957  0.4771732

 Al 
  0.5185275  0.2368224  0.7299465

 Al 
  0.7715942  0.9898743  0.7386751

 Al 
  0.7597953  0.2464927  0.4903470

 Al 
  0.4992624  0.4890934  0.5052027

 Al 
  0.5037214  0.7739221  0.7397505

 Al 
  0.7432602  0.4946253  0.7553822

 Al 
  0.7536409  0.7367779  0.5096629

