32 
charge = 0 
 Al 
  0.9996918  0.0120910  0.0172863

 Al 
  0.0118212  0.2569551  0.2538265

 Al 
  0.2661935  0.0139238  0.2404027

 Al 
  0.2437342  0.2667863  0.9950609

 Al 
  0.5191587  0.9997711  0.9821791

 Al 
  0.4932825  0.2481115  0.2378100

 Al 
  0.7546260  0.0000718  0.2499827

 Al 
  0.7431996  0.2376269  0.0114970

 Al 
  0.9829513  0.5074551  0.0096716

 Al 
  0.9905252  0.7417789  0.2536582

 Al 
  0.2566630  0.5065937  0.2721103

 Al 
  0.2649671  0.7560653  0.0165549

 Al 
  0.9890302  0.9949334  0.4928073

 Al 
  0.9962279  0.2434582  0.7647641

 Al 
  0.2614536  0.0146404  0.7629684

 Al 
  0.2390723  0.2546916  0.5152047

 Al 
  0.9840379  0.4994790  0.5112037

 Al 
  0.0120105  0.7563017  0.7561037

 Al 
  0.2338040  0.5029058  0.7489394

 Al 
  0.2503490  0.7596889  0.4914274

 Al 
  0.4781731  0.5053091  0.9801780

 Al 
  0.5055567  0.7352557  0.2504022

 Al 
  0.7324217  0.4908792  0.2529417

 Al 
  0.7468962  0.7236436  0.9881800

 Al 
  0.4945040  0.0026806  0.4770519

 Al 
  0.5183110  0.2370353  0.7297943

 Al 
  0.7713925  0.9898421  0.7384424

 Al 
  0.7595428  0.2470125  0.4903433

 Al 
  0.4995273  0.4894634  0.5045010

 Al 
  0.5042424  0.7744159  0.7399473

 Al 
  0.7431365  0.4945597  0.7555282

 Al 
  0.7534961  0.7365724  0.5092297

