32 
charge = 0 
 Al 
  0.0025828  0.0113720  0.0136516

 Al 
  0.0124585  0.2574142  0.2566581

 Al 
  0.2665945  0.0128942  0.2394151

 Al 
  0.2429249  0.2658321  0.9951314

 Al 
  0.5210608  0.9991560  0.9819489

 Al 
  0.4931984  0.2479741  0.2365724

 Al 
  0.7535728  0.9982587  0.2497017

 Al 
  0.7442144  0.2377246  0.0108410

 Al 
  0.9840070  0.5063153  0.0095923

 Al 
  0.9884424  0.7425746  0.2541755

 Al 
  0.2551742  0.5065653  0.2716908

 Al 
  0.2664942  0.7560764  0.0165635

 Al 
  0.9907863  0.9970410  0.4924311

 Al 
  0.9963541  0.2457638  0.7659856

 Al 
  0.2587817  0.0131404  0.7589897

 Al 
  0.2386033  0.2523972  0.5163333

 Al 
  0.9834266  0.5028340  0.5103027

 Al 
  0.0125588  0.7564564  0.7573660

 Al 
  0.2346072  0.5028786  0.7503032

 Al 
  0.2497562  0.7591109  0.4921860

 Al 
  0.4784961  0.5070170  0.9799663

 Al 
  0.5026595  0.7362730  0.2501596

 Al 
  0.7312868  0.4914460  0.2528538

 Al 
  0.7484827  0.7267016  0.9869153

 Al 
  0.4935350  0.0031397  0.4776471

 Al 
  0.5191340  0.2361938  0.7305158

 Al 
  0.7720930  0.9900401  0.7394609

 Al 
  0.7605057  0.2448913  0.4903965

 Al 
  0.4984444  0.4880513  0.5073301

 Al 
  0.5020890  0.7722600  0.7391231

 Al 
  0.7436624  0.4947614  0.7549020

 Al 
  0.7540109  0.7374449  0.5108893

