32 
charge = 0 
 Al 
  0.9989877  0.0122160  0.0181588

 Al 
  0.0116331  0.2568425  0.2531298

 Al 
  0.2660400  0.0141528  0.2406440

 Al 
  0.2439582  0.2670029  0.9950696

 Al 
  0.5186612  0.9999158  0.9822930

 Al 
  0.4933110  0.2481746  0.2381305

 Al 
  0.7548673  0.0004938  0.2500483

 Al 
  0.7429805  0.2376640  0.0116232

 Al 
  0.9827496  0.5076915  0.0096852

 Al 
  0.9910487  0.7415945  0.2535246

 Al 
  0.2569972  0.5065752  0.2721660

 Al 
  0.2645216  0.7560752  0.0165153

 Al 
  0.9886627  0.9944211  0.4929013

 Al 
  0.9961697  0.2429088  0.7644275

 Al 
  0.2620811  0.0149844  0.7639312

 Al 
  0.2392097  0.2552398  0.5148941

 Al 
  0.9842211  0.4986436  0.5114079

 Al 
  0.0118806  0.7562621  0.7558029

 Al 
  0.2336283  0.5029367  0.7485966

 Al 
  0.2504938  0.7598349  0.4912702

 Al 
  0.4781533  0.5048562  0.9802609

 Al 
  0.5062992  0.7350490  0.2504653

 Al 
  0.7327459  0.4907406  0.2529442

 Al 
  0.7464791  0.7229840  0.9885389

 Al 
  0.4947775  0.0025630  0.4769504

 Al 
  0.5180857  0.2372506  0.7296594

 Al 
  0.7711722  0.9898210  0.7382271

 Al 
  0.7592842  0.2475261  0.4903458

 Al 
  0.4997909  0.4898421  0.5038018

 Al 
  0.5047510  0.7748787  0.7401354

 Al 
  0.7430152  0.4944842  0.7556656

 Al 
  0.7533402  0.7363757  0.5087855

