32 
charge = 0 
 Al 
  0.9955559  0.0124981  0.0223083

 Al 
  0.0105094  0.2563066  0.2496943

 Al 
  0.2649547  0.0151342  0.2418383

 Al 
  0.2451933  0.2679719  0.9952799

 Al 
  0.5160450  0.0006126  0.9832620

 Al 
  0.4935003  0.2486610  0.2398198

 Al 
  0.7559193  0.0024207  0.2503688

 Al 
  0.7420511  0.2382357  0.0120254

 Al 
  0.9821296  0.5085602  0.0097013

 Al 
  0.9936959  0.7407579  0.2528427

 Al 
  0.2584550  0.5063178  0.2721388

 Al 
  0.2619301  0.7561754  0.0161007

 Al 
  0.9872457  0.9919558  0.4933654

 Al 
  0.9957217  0.2402728  0.7625551

 Al 
  0.2649770  0.0165437  0.7685572

 Al 
  0.2400413  0.2578226  0.5131615

 Al 
  0.9853114  0.4944594  0.5123076

 Al 
  0.0112581  0.7560690  0.7543649

 Al 
  0.2329204  0.5032288  0.7468752

 Al 
  0.2512301  0.7605911  0.4906873

 Al 
  0.4784058  0.5024256  0.9808636

 Al 
  0.5101443  0.7343114  0.2507537

 Al 
  0.7346517  0.4900413  0.2528241

 Al 
  0.7442206  0.7202997  0.9906143

 Al 
  0.4963455  0.0019702  0.4767153

 Al 
  0.5168469  0.2383966  0.7292374

 Al 
  0.7697701  0.9898953  0.7373707

 Al 
  0.7578622  0.2499901  0.4904572

 Al 
  0.5010730  0.4919101  0.5003490

 Al 
  0.5071457  0.7767474  0.7409782

 Al 
  0.7424670  0.4939335  0.7562188

 Al 
  0.7524170  0.7354822  0.5063623

