32 
charge = 0 
 Al 
  0.9902530  0.0116393  0.0281991

 Al 
  0.0080008  0.2556643  0.2443456

 Al 
  0.2620341  0.0162393  0.2438530

 Al 
  0.2474816  0.2692193  0.9962762

 Al 
  0.5114574  0.0017685  0.9865898

 Al 
  0.4940312  0.2500297  0.2429805

 Al 
  0.7569464  0.0049738  0.2510519

 Al 
  0.7410178  0.2405995  0.0117890

 Al 
  0.9825677  0.5087545  0.0094265

 Al 
  0.9981424  0.7396725  0.2517190

 Al 
  0.2601245  0.5053487  0.2708232

 Al 
  0.2564873  0.7563772  0.0147456

 Al 
  0.9864128  0.9883434  0.4940585

 Al 
  0.9945015  0.2362222  0.7588399

 Al 
  0.2686637  0.0185511  0.7753985

 Al 
  0.2419806  0.2613509  0.5095985

 Al 
  0.9876528  0.4875365  0.5132766

 Al 
  0.0102532  0.7558178  0.7522103

 Al 
  0.2324736  0.5041990  0.7440845

 Al 
  0.2525877  0.7619982  0.4904609

 Al 
  0.4799998  0.4979333  0.9825504

 Al 
  0.5168036  0.7342471  0.2509467

 Al 
  0.7389783  0.4887765  0.2520667

 Al 
  0.7398545  0.7180919  0.9950993

 Al 
  0.4996894  0.0009876  0.4773155

 Al 
  0.5143792  0.2406824  0.7293315

 Al 
  0.7662975  0.9907146  0.7367717

 Al 
  0.7550468  0.2535456  0.4910091

 Al 
  0.5030951  0.4958802  0.4949309

 Al 
  0.5105267  0.7781360  0.7420004

 Al 
  0.7417442  0.4924212  0.7565814

 Al 
  0.7505148  0.7342805  0.5016670

