32 
charge = 0 
 Al 
  0.9922232  0.0121677  0.0261113

 Al 
  0.0090540  0.2558599  0.2463282

 Al 
  0.2633100  0.0158854  0.2430659

 Al 
  0.2465893  0.2687887  0.9957997

 Al 
  0.5132295  0.0013180  0.9850391

 Al 
  0.4937911  0.2494320  0.2417120

 Al 
  0.7566742  0.0040864  0.2507500

 Al 
  0.7413519  0.2394919  0.0120155

 Al 
  0.9821853  0.5088659  0.0095874

 Al 
  0.9964358  0.7400463  0.2521397

 Al 
  0.2595911  0.5057906  0.2715237

 Al 
  0.2587186  0.7563103  0.0153520

 Al 
  0.9865155  0.9896478  0.4938085

 Al 
  0.9950275  0.2377382  0.7603423

 Al 
  0.2674360  0.0178642  0.7729147

 Al 
  0.2411514  0.2601245  0.5110638

 Al 
  0.9866863  0.4901812  0.5129895

 Al 
  0.0106443  0.7559007  0.7530060

 Al 
  0.2325281  0.5037610  0.7451339

 Al 
  0.2520395  0.7614338  0.4904411

 Al 
  0.4792288  0.4997067  0.9818041

 Al 
  0.5142332  0.7340961  0.2509344

 Al 
  0.7371393  0.4892839  0.2524429

 Al 
  0.7416118  0.7186191  0.9932342

 Al 
  0.4982996  0.0013601  0.4769454

 Al 
  0.5153841  0.2397357  0.7291916

 Al 
  0.7677974  0.9902963  0.7368843

 Al 
  0.7561940  0.2522746  0.4907467

 Al 
  0.5023340  0.4942899  0.4969482

 Al 
  0.5093188  0.7778575  0.7416601

 Al 
  0.7419954  0.4930808  0.7565269

 Al 
  0.7512772  0.7347050  0.5035568

