32 
charge = 0 
 Al 
  0.9858225  0.0093176  0.0322001

 Al 
  0.0050394  0.2555183  0.2400203

 Al 
  0.2582187  0.0167826  0.2459284

 Al 
  0.2495631  0.2700361  0.9978850

 Al 
  0.5072620  0.0029244  0.9918890

 Al 
  0.4948431  0.2517722  0.2463591

 Al 
  0.7568685  0.0067051  0.2521237

 Al 
  0.7404386  0.2441921  0.0105354

 Al 
  0.9845268  0.5075937  0.0086493

 Al 
  0.0022511  0.7389548  0.2508316

 Al 
  0.2608967  0.5040369  0.2680746

 Al 
  0.2505322  0.7563710  0.0129078

 Al 
  0.9871999  0.9856455  0.4945671

 Al 
  0.9930573  0.2326494  0.7549094

 Al 
  0.2705386  0.0198270  0.7805888

 Al 
  0.2444508  0.2635897  0.5055468

 Al 
  0.9902653  0.4812571  0.5134573

 Al 
  0.0091703  0.7556779  0.7504084

 Al 
  0.2330281  0.5055393  0.7417195

 Al 
  0.2541013  0.7634894  0.4909881

 Al 
  0.4825924  0.4935201  0.9848646

 Al 
  0.5228689  0.7355242  0.2505581

 Al 
  0.7443641  0.4873979  0.2507413

 Al 
  0.7353299  0.7183184  0.0002215

 Al 
  0.5035704  0.0001460  0.4788562

 Al 
  0.5116368  0.2434261  0.7301272

 Al 
  0.7618435  0.9922529  0.7370724

 Al 
  0.7519071  0.2560777  0.4918643

 Al 
  0.5048611  0.4999876  0.4904386

 Al 
  0.5129746  0.7774949  0.7426353

 Al 
  0.7412690  0.4905475  0.7562905

 Al 
  0.7487055  0.7334278  0.4967378

