32 
charge = 0 
 Al 
  0.9864301  0.0097446  0.0317274

 Al 
  0.0054985  0.2555084  0.2405945

 Al 
  0.2588275  0.0167306  0.2456091

 Al 
  0.2492785  0.2699384  0.9976152

 Al 
  0.5078499  0.0027511  0.9909844

 Al 
  0.4947032  0.2514999  0.2458443

 Al 
  0.7569502  0.0064898  0.2519331

 Al 
  0.7405054  0.2436018  0.0107792

 Al 
  0.9841592  0.5078338  0.0088015

 Al 
  0.0016633  0.7390439  0.2509430

 Al 
  0.2608299  0.5042399  0.2685647

 Al 
  0.2514294  0.7563920  0.0132023

 Al 
  0.9870006  0.9859908  0.4945040

 Al 
  0.9932751  0.2331580  0.7554948

 Al 
  0.2703715  0.0196760  0.7799205

 Al 
  0.2440535  0.2633372  0.5061730

 Al 
  0.9898693  0.4821444  0.5134820

 Al 
  0.0093461  0.7556940  0.7506596

 Al 
  0.2328833  0.5053252  0.7420412

 Al 
  0.2538649  0.7632654  0.4908742

 Al 
  0.4821593  0.4941587  0.9844872

 Al 
  0.5220237  0.7352594  0.2506547

 Al 
  0.7435077  0.4876095  0.2509665

 Al 
  0.7359933  0.7181612  0.9994406

 Al 
  0.5029689  0.0002599  0.4785803

 Al 
  0.5120600  0.2429880  0.7299750

 Al 
  0.7625538  0.9919855  0.7369796

 Al 
  0.7523922  0.2557646  0.4917257

 Al 
  0.5046136  0.4993775  0.4910475

 Al 
  0.5126652  0.7777028  0.7425548

 Al 
  0.7413247  0.4908321  0.7563685

 Al 
  0.7489505  0.7335342  0.4974717

