32 
charge = 0 
 Al 
  0.9870489  0.0101406  0.0312175

 Al 
  0.0059477  0.2555096  0.2411886

 Al 
  0.2594179  0.0166700  0.2452985

 Al 
  0.2489852  0.2698332  0.9973578

 Al 
  0.5084451  0.0025803  0.9901292

 Al 
  0.4945708  0.2512338  0.2453393

 Al 
  0.7570071  0.0062633  0.2517561

 Al 
  0.7405772  0.2430350  0.0110007

 Al 
  0.9838189  0.5080503  0.0089389

 Al 
  0.0010730  0.7391379  0.2510606

 Al 
  0.2607482  0.5044391  0.2690238

 Al 
  0.2523155  0.7564056  0.0134870

 Al 
  0.9868286  0.9863522  0.4944372

 Al 
  0.9934904  0.2336691  0.7560764

 Al 
  0.2701686  0.0195139  0.7792226

 Al 
  0.2436699  0.2630600  0.5067856

 Al 
  0.9894782  0.4830392  0.5134870

 Al 
  0.0095131  0.7557114  0.7509121

 Al 
  0.2327620  0.5051161  0.7423704

 Al 
  0.2536347  0.7630439  0.4907727

 Al 
  0.4817447  0.4947973  0.9841233

 Al 
  0.5211660  0.7350230  0.2507376

 Al 
  0.7426773  0.4878174  0.2511794

 Al 
  0.7366566  0.7180449  0.9986721

 Al 
  0.5023811  0.0003762  0.4783229

 Al 
  0.5124746  0.2425647  0.7298352

 Al 
  0.7632432  0.9917331  0.7369041

 Al 
  0.7528662  0.2554329  0.4915908

 Al 
  0.5043636  0.4987723  0.4916700

 Al 
  0.5123410  0.7778724  0.7424731

 Al 
  0.7413853  0.4911143  0.7564341

 Al 
  0.7492030  0.7336468  0.4981993

