32 
charge = 0 
 Al 
  0.9852285  0.0088597  0.0326320

 Al 
  0.0045728  0.2555393  0.2394671

 Al 
  0.2575937  0.0168271  0.2462539

 Al 
  0.2498416  0.2701265  0.9981659

 Al 
  0.5066841  0.0030976  0.9928382

 Al 
  0.4949928  0.2520494  0.2468801

 Al 
  0.7567596  0.0069093  0.2523266

 Al 
  0.7403755  0.2448010  0.0102718

 Al 
  0.9849215  0.5073313  0.0084823

 Al 
  0.0028340  0.7388706  0.2507277

 Al 
  0.2609487  0.5038340  0.2675536

 Al 
  0.2496300  0.7563425  0.0126046

 Al 
  0.9874288  0.9853176  0.4946265

 Al 
  0.9928407  0.2321444  0.7543216

 Al 
  0.2706685  0.0199656  0.7812262

 Al 
  0.2448616  0.2638161  0.5049094

 Al 
  0.9906663  0.4803809  0.5134164

 Al 
  0.0089884  0.7556631  0.7501621

 Al 
  0.2331964  0.5057609  0.7414064

 Al 
  0.2543426  0.7637147  0.4911143

 Al 
  0.4830442  0.4928865  0.9852557

 Al 
  0.5236944  0.7358151  0.2504480

 Al 
  0.7452440  0.4871813  0.2505074

 Al 
  0.7346691  0.7185176  0.0010086

 Al 
  0.5041830  0.0000359  0.4791483

 Al 
  0.5112037  0.2438778  0.7302906

 Al 
  0.7611133  0.9925350  0.7371813

 Al 
  0.7514121  0.2563697  0.4920078

 Al 
  0.5051049  0.5005990  0.4898470

 Al 
  0.5132667  0.7772462  0.7427120

 Al 
  0.7412195  0.4902604  0.7562014

 Al 
  0.7484716  0.7333263  0.4960014

