32 
charge = 0 
 Al 
  0.9896020  0.0114029  0.0288562

 Al 
  0.0076197  0.2556148  0.2436959

 Al 
  0.2615588  0.0163420  0.2441278

 Al 
  0.2477835  0.2693530  0.9964643

 Al 
  0.5108571  0.0019244  0.9871987

 Al 
  0.4941241  0.2502512  0.2434273

 Al 
  0.7570009  0.0052510  0.2511707

 Al 
  0.7409188  0.2410289  0.0116739

 Al 
  0.9827570  0.5086654  0.0093523

 Al 
  0.9987216  0.7395562  0.2515816

 Al 
  0.2602755  0.5051817  0.2705287

 Al 
  0.2556953  0.7563932  0.0145178

 Al 
  0.9864376  0.9879239  0.4941389

 Al 
  0.9943109  0.2357136  0.7583102

 Al 
  0.2690226  0.0187627  0.7761992

 Al 
  0.2422875  0.2617296  0.5090726

 Al 
  0.9879981  0.4866418  0.5133471

 Al 
  0.0101158  0.7557930  0.7519479

 Al 
  0.2324910  0.5043636  0.7437355

 Al 
  0.2527833  0.7621974  0.4904955

 Al 
  0.4803030  0.4973207  0.9828325

 Al 
  0.5176736  0.7343485  0.2509294

 Al 
  0.7396540  0.4885959  0.2519157

 Al 
  0.7392382  0.7179991  0.9957712

 Al 
  0.5001906  0.0008638  0.4774776

 Al 
  0.5140216  0.2410277  0.7294057

 Al 
  0.7657418  0.9908854  0.7367655

 Al 
  0.7546371  0.2539491  0.4911118

 Al 
  0.5033488  0.4964358  0.4942651

 Al 
  0.5109116  0.7781583  0.7421031

 Al 
  0.7416650  0.4921774  0.7565752

 Al 
  0.7502525  0.7341456  0.5010024

