32 
charge = 0 
 Al 
  0.9835429  0.0073189  0.0336580

 Al 
  0.0031496  0.2556606  0.2379610

 Al 
  0.2556458  0.0169051  0.2472662

 Al 
  0.2506064  0.2703480  0.9990681

 Al 
  0.5050369  0.0036186  0.9959346

 Al 
  0.4954916  0.2528934  0.2484704

 Al 
  0.7562794  0.0074464  0.2530135

 Al 
  0.7402146  0.2467143  0.0093609

 Al 
  0.9862457  0.5064279  0.0078907

 Al 
  0.0045357  0.7386429  0.2504740

 Al 
  0.2610094  0.5032338  0.2658235

 Al 
  0.2469209  0.7562039  0.0116616

 Al 
  0.9882654  0.9844488  0.4947775

 Al 
  0.9921996  0.2306656  0.7525704

 Al 
  0.2708232  0.0203059  0.7829192

 Al 
  0.2461598  0.2643198  0.5029479

 Al 
  0.9918729  0.4778650  0.5131751

 Al 
  0.0083882  0.7556198  0.7494518

 Al 
  0.2338436  0.5064452  0.7405351

 Al 
  0.2550988  0.7643867  0.4915512

 Al 
  0.4844921  0.4910425  0.9865007

 Al 
  0.5260074  0.7368360  0.2500347

 Al 
  0.7479865  0.4865254  0.2497612

 Al 
  0.7327471  0.7193431  0.0033724

 Al 
  0.5060579  0.9997364  0.4801074

 Al 
  0.5098646  0.2453035  0.7308462

 Al 
  0.7588337  0.9934570  0.7376021

 Al 
  0.7498874  0.2571110  0.4924571

 Al 
  0.5058042  0.5024231  0.4881961

 Al 
  0.5140278  0.7762710  0.7429323

 Al 
  0.7411056  0.4894151  0.7558673

 Al 
  0.7478565  0.7330640  0.4938122

