32 
charge = 0 
 Al 
  0.9811519  0.0043092  0.0343696

 Al 
  0.0008403  0.2560183  0.2360762

 Al 
  0.2523279  0.0168655  0.2490199

 Al 
  0.2515779  0.2705274  0.0006831

 Al 
  0.5027177  0.0044441  0.0016732

 Al 
  0.4964791  0.2542560  0.2510816

 Al 
  0.7549812  0.0080838  0.2543649

 Al 
  0.7400290  0.2499765  0.0075170

 Al 
  0.9887765  0.5046545  0.0066036

 Al 
  0.0070826  0.7383372  0.2502834

 Al 
  0.2607977  0.5023613  0.2625217

 Al 
  0.2426526  0.7557992  0.0100453

 Al 
  0.9900562  0.9834575  0.4949297

 Al 
  0.9912368  0.2284280  0.7498478

 Al 
  0.2703109  0.0206017  0.7848869

 Al 
  0.2484617  0.2645352  0.4996795

 Al 
  0.9937899  0.4742513  0.5123967

 Al 
  0.0072039  0.7555393  0.7483998

 Al 
  0.2353695  0.5075937  0.7393706

 Al 
  0.2564168  0.7654237  0.4924113

 Al 
  0.4871046  0.4883310  0.9887221

 Al 
  0.5290505  0.7389548  0.2491374

 Al 
  0.7526558  0.4854784  0.2484580

 Al 
  0.7299837  0.7213826  0.0070405

 Al 
  0.5091394  0.9993589  0.4819068

 Al 
  0.5075603  0.2478157  0.7319403

 Al 
  0.7549304  0.9951673  0.7385847

 Al 
  0.7473219  0.2578499  0.4932206

 Al 
  0.5068091  0.5052683  0.4859759

 Al 
  0.5148607  0.7739617  0.7432899

 Al 
  0.7410685  0.4881739  0.7551309

 Al 
  0.7472551  0.7327942  0.4904324

