32 
charge = 0 
 Al 
  0.9815838  0.0049441  0.0343300

 Al 
  0.0012858  0.2559353  0.2363843

 Al 
  0.2529862  0.0168903  0.2486671

 Al 
  0.2514182  0.2705126  0.0003564

 Al 
  0.5031323  0.0042857  0.0004876

 Al 
  0.4962675  0.2539949  0.2505730

 Al 
  0.7552856  0.0079823  0.2540790

 Al 
  0.7400587  0.2493330  0.0079117

 Al 
  0.9882493  0.5050257  0.0068907

 Al 
  0.0066111  0.7383929  0.2502958

 Al 
  0.2608695  0.5025172  0.2632122

 Al 
  0.2434644  0.7558970  0.0103671

 Al 
  0.9896688  0.9836072  0.4949099

 Al 
  0.9914138  0.2288451  0.7503614

 Al 
  0.2704866  0.0205708  0.7845837

 Al 
  0.2479939  0.2645550  0.5003218

 Al 
  0.9934236  0.4749022  0.5125885

 Al 
  0.0074588  0.7555579  0.7485941

 Al 
  0.2350218  0.5073684  0.7395711

 Al 
  0.2561494  0.7652294  0.4922306

 Al 
  0.4865712  0.4888260  0.9882704

 Al 
  0.5285419  0.7384969  0.2493330

 Al 
  0.7517301  0.4856765  0.2487179

 Al 
  0.7304762  0.7209185  0.0063549

 Al 
  0.5085404  0.9994208  0.4815331

 Al 
  0.5080231  0.2473071  0.7317088

 Al 
  0.7557064  0.9948146  0.7383632

 Al 
  0.7478293  0.2577533  0.4930684

 Al 
  0.5066271  0.5047287  0.4863596

 Al 
  0.5147394  0.7744839  0.7432169

 Al 
  0.7410598  0.4883979  0.7552931

 Al 
  0.7473244  0.7328288  0.4910660

