32 
charge = 0 
 Al 
  0.9820393  0.0055653  0.0342396

 Al 
  0.0017413  0.2558574  0.2367271

 Al 
  0.2536483  0.0169063  0.2483132

 Al 
  0.2512413  0.2704866  0.0000297

 Al 
  0.5035716  0.0041248  0.9993169

 Al 
  0.4960621  0.2537263  0.2500545

 Al 
  0.7555690  0.0078684  0.2537993

 Al 
  0.7400921  0.2486820  0.0082954

 Al 
  0.9877308  0.5053921  0.0071618

 Al 
  0.0061185  0.7384498  0.2503205

 Al 
  0.2609277  0.5026830  0.2638892

 Al 
  0.2443010  0.7559861  0.0106913

 Al 
  0.9892938  0.9837805  0.4948852

 Al 
  0.9915994  0.2292795  0.7508935

 Al 
  0.2706265  0.0205250  0.7842359

 Al 
  0.2475286  0.2645438  0.5009715

 Al 
  0.9930474  0.4755916  0.5127630

 Al 
  0.0077051  0.7555740  0.7487983

 Al 
  0.2346951  0.5071407  0.7397876

 Al 
  0.2558846  0.7650277  0.4920536

 Al 
  0.4860415  0.4893458  0.9878211

 Al 
  0.5279788  0.7380550  0.2495211

 Al 
  0.7507970  0.4858819  0.2489790

 Al 
  0.7310009  0.7204804  0.0056408

 Al 
  0.5079303  0.9994901  0.4811655

 Al 
  0.5084860  0.2467997  0.7314824

 Al 
  0.7564885  0.9944656  0.7381541

 Al 
  0.7483404  0.2576308  0.4929162

 Al 
  0.5064366  0.5041731  0.4867754

 Al 
  0.5145958  0.7749777  0.7431451

 Al 
  0.7410586  0.4886342  0.7554490

 Al 
  0.7474209  0.7328746  0.4917244

