32 
charge = 0 
 Al 
  0.9766806  0.9912071  0.0267809

 Al 
  0.9953096  0.2568672  0.2360886

 Al 
  0.2421365  0.0150005  0.2551829

 Al 
  0.2514232  0.2686043  0.0061915

 Al 
  0.4988986  0.0065059  0.0237934

 Al 
  0.5012920  0.2576197  0.2584266

 Al 
  0.7472823  0.0080714  0.2598708

 Al 
  0.7402096  0.2586654  0.9985323

 Al 
  0.9986511  0.4977117  0.9985013

 Al 
  0.0119153  0.7373571  0.2526583

 Al 
  0.2574984  0.5018044  0.2490359

 Al 
  0.2329637  0.7530098  0.0043092

 Al 
  0.9980211  0.9848757  0.4946537

 Al 
  0.9896589  0.2240718  0.7438889

 Al 
  0.2623583  0.0186476  0.7833115

 Al 
  0.2572162  0.2594575  0.4900426

 Al 
  0.9984815  0.4692094  0.5060863

 Al 
  0.0003861  0.7546260  0.7459717

 Al 
  0.2450819  0.5106158  0.7383087

 Al 
  0.2616393  0.7672380  0.4958566

 Al 
  0.4971214  0.4845948  0.9971845

 Al 
  0.5274392  0.7490421  0.2459915

 Al 
  0.7666019  0.4841951  0.2446847

 Al 
  0.7285889  0.7334674  0.0127494

 Al 
  0.5167628  0.9992228  0.4898161

 Al 
  0.4987414  0.2570875  0.7370204

 Al 
  0.7420264  0.0017054  0.7447107

 Al 
  0.7395723  0.2560133  0.4960386

 Al 
  0.5079947  0.5118893  0.4840082

 Al 
  0.5133335  0.7603163  0.7454148

 Al 
  0.7432479  0.4873645  0.7511113

 Al 
  0.7514640  0.7339364  0.4837780

