32 
charge = 0 
 Al 
  0.9765791  0.9905029  0.0260123

 Al 
  0.9951785  0.2567955  0.2363324

 Al 
  0.2417219  0.0148198  0.2554564

 Al 
  0.2512846  0.2683654  0.0064242

 Al 
  0.4988218  0.0065826  0.0248651

 Al 
  0.5015791  0.2577323  0.2586840

 Al 
  0.7468752  0.0079959  0.2601171

 Al 
  0.7402740  0.2588956  0.9979989

 Al 
  0.9991337  0.4973702  0.9979159

 Al 
  0.0119747  0.7372952  0.2529120

 Al 
  0.2572583  0.5018947  0.2483479

 Al 
  0.2327521  0.7528402  0.0040060

 Al 
  0.9984308  0.9851493  0.4946277

 Al 
  0.9896664  0.2240335  0.7437590

 Al 
  0.2617717  0.0184112  0.7829241

 Al 
  0.2576630  0.2590070  0.4896787

 Al 
  0.9986436  0.4692862  0.5056396

 Al 
  0.9999035  0.7545307  0.7458876

 Al 
  0.2457391  0.5106975  0.7383607

 Al 
  0.2619326  0.7672293  0.4960361

 Al 
  0.4976375  0.4846963  0.9976400

 Al 
  0.5267598  0.7495953  0.2459185

 Al 
  0.7671056  0.4843040  0.2445535

 Al 
  0.7289515  0.7342483  0.0126479

 Al 
  0.5169299  0.9992476  0.4903124

 Al 
  0.4982439  0.2575553  0.7373286

 Al 
  0.7414212  0.0020197  0.7451463

 Al 
  0.7392802  0.2557868  0.4962081

 Al 
  0.5079489  0.5120737  0.4841283

 Al 
  0.5130872  0.7594339  0.7455893

 Al 
  0.7434855  0.4875142  0.7508465

 Al 
  0.7519652  0.7340899  0.4836951

