32 
charge = 0 
 Al 
  0.9764888  0.9897988  0.0252129

 Al 
  0.9950634  0.2567051  0.2365947

 Al 
  0.2413173  0.0146292  0.2557213

 Al 
  0.2511361  0.2681105  0.0066494

 Al 
  0.4987488  0.0066593  0.0259207

 Al 
  0.5018700  0.2578412  0.2589278

 Al 
  0.7464767  0.0079167  0.2603559

 Al 
  0.7403458  0.2590998  0.9974618

 Al 
  0.9996114  0.4970311  0.9973157

 Al 
  0.0120167  0.7372333  0.2531768

 Al 
  0.2570133  0.5019950  0.2476660

 Al 
  0.2325689  0.7526694  0.0037015

 Al 
  0.9988367  0.9854413  0.4946030

 Al 
  0.9896812  0.2240149  0.7436451

 Al 
  0.2611740  0.0181612  0.7825132

 Al 
  0.2581060  0.2585454  0.4893310

 Al 
  0.9988008  0.4693914  0.5051841

 Al 
  0.9994084  0.7544305  0.7458034

 Al 
  0.2464086  0.5107705  0.7384189

 Al 
  0.2622259  0.7672083  0.4962155

 Al 
  0.4981536  0.4848287  0.9980991

 Al 
  0.5260247  0.7501460  0.2458566

 Al 
  0.7675845  0.4844352  0.2444260

 Al 
  0.7293562  0.7350428  0.0125093

 Al 
  0.5170697  0.9992723  0.4908235

 Al 
  0.4977402  0.2580219  0.7376429

 Al 
  0.7408198  0.0023279  0.7455968

 Al 
  0.7390018  0.2555529  0.4963814

 Al 
  0.5078944  0.5122432  0.4842632

 Al 
  0.5128286  0.7585379  0.7457712

 Al 
  0.7437367  0.4876838  0.7505755

 Al 
  0.7524900  0.7342520  0.4836345

