32 
charge = 0 
 Al 
  0.9769083  0.9926192  0.0282201

 Al 
  0.9956190  0.2569563  0.2356579

 Al 
  0.2429991  0.0153309  0.2546136

 Al 
  0.2516719  0.2690349  0.0057052

 Al 
  0.4990681  0.0063487  0.0216103

 Al 
  0.5007264  0.2573833  0.2578721

 Al 
  0.7481201  0.0082026  0.2593535

 Al 
  0.7401032  0.2581333  0.9995842

 Al 
  0.9976709  0.4984011  0.9996176

 Al 
  0.0117445  0.7374759  0.2521855

 Al 
  0.2579662  0.5016559  0.2504257

 Al 
  0.2334724  0.7533488  0.0049082

 Al 
  0.9971944  0.9843844  0.4947094

 Al 
  0.9896713  0.2242067  0.7441983

 Al 
  0.2634944  0.0190783  0.7840082

 Al 
  0.2563165  0.2603163  0.4908148

 Al 
  0.9981461  0.4691488  0.5069526

 Al 
  0.0013081  0.7547980  0.7461487

 Al 
  0.2438060  0.5104277  0.7382283

 Al 
  0.2610613  0.7672244  0.4954990

 Al 
  0.4960868  0.4844797  0.9962836

 Al 
  0.5286261  0.7479320  0.2461772

 Al 
  0.7655166  0.4840379  0.2449668

 Al 
  0.7279924  0.7319477  0.0128397

 Al 
  0.5163532  0.9991758  0.4888582

 Al 
  0.4997178  0.2561482  0.7364190

 Al 
  0.7432491  0.0010668  0.7438778

 Al 
  0.7401948  0.2564428  0.4957143

 Al 
  0.5080602  0.5114809  0.4838226

 Al 
  0.5137840  0.7620353  0.7450881

 Al 
  0.7428135  0.4871219  0.7516224

 Al 
  0.7505383  0.7336567  0.4840169

