32 
charge = 0 
 Al 
  0.9760940  0.9820479  0.0140327

 Al 
  0.9947725  0.2540567  0.2406997

 Al 
  0.2374684  0.0115254  0.2578919

 Al 
  0.2489567  0.2637654  0.0086642

 Al 
  0.4978405  0.0076853  0.0365415

 Al 
  0.5054490  0.2589946  0.2605849

 Al 
  0.7430300  0.0065814  0.2623286

 Al 
  0.7418940  0.2595750  0.9911663

 Al 
  0.0045938  0.4932268  0.9891763

 Al 
  0.0113707  0.7365675  0.2568054

 Al 
  0.2540060  0.5038092  0.2403965

 Al 
  0.2325850  0.7508267  0.0000136

 Al 
  0.0031533  0.9901589  0.4946117

 Al 
  0.9904757  0.2254096  0.7433803

 Al 
  0.2536162  0.0141973  0.7760779

 Al 
  0.2627320  0.2526236  0.4865390

 Al 
  0.0006646  0.4726697  0.4994419

 Al 
  0.9927405  0.7527276  0.7448381

 Al 
  0.2547894  0.5109054  0.7394745

 Al 
  0.2656032  0.7660858  0.4984134

 Al 
  0.5040666  0.4885785  0.0037077

 Al 
  0.5138434  0.7560356  0.2461475

 Al 
  0.7710225  0.4876467  0.2432144

 Al 
  0.7367890  0.7451030  0.0086654

 Al 
  0.5165982  0.9994060  0.4979036

 Al 
  0.4915363  0.2632704  0.7417764

 Al 
  0.7339760  0.0054057  0.7518464

 Al 
  0.7369821  0.2525667  0.4989283

 Al 
  0.5068177  0.5133545  0.4868794

 Al 
  0.5090008  0.7473553  0.7484629

 Al 
  0.7476573  0.4910499  0.7468665

 Al 
  0.7598733  0.7367915  0.4845218

