32 
charge = 0 
 Al 
  0.9760631  0.9837830  0.0169806

 Al 
  0.9946772  0.2549812  0.2395723

 Al 
  0.2382357  0.0124387  0.2575702

 Al 
  0.2495285  0.2650549  0.0082966

 Al 
  0.4981041  0.0073944  0.0343572

 Al 
  0.5045691  0.2587261  0.2604091

 Al 
  0.7435969  0.0069700  0.2620130

 Al 
  0.7413878  0.2597904  0.9926464

 Al 
  0.0035221  0.4941142  0.9912987

 Al 
  0.0117036  0.7366987  0.2558809

 Al 
  0.2547399  0.5032833  0.2419831

 Al 
  0.2322150  0.7512277  0.0009158

 Al 
  0.0022078  0.9888112  0.4945374

 Al 
  0.9901812  0.2247847  0.7432714

 Al 
  0.2554985  0.0153322  0.7778872

 Al 
  0.2617519  0.2540901  0.4869722

 Al 
  0.0001807  0.4715534  0.5008638

 Al 
  0.9944681  0.7532313  0.7450819

 Al 
  0.2527276  0.5110044  0.7391750

 Al 
  0.2648322  0.7665128  0.4978603

 Al 
  0.5026744  0.4873051  0.0023241

 Al 
  0.5173135  0.7547535  0.2459037

 Al 
  0.7705869  0.4865861  0.2434731

 Al 
  0.7345998  0.7425895  0.0099055

 Al 
  0.5170870  0.9994208  0.4960027

 Al 
  0.4930622  0.2620576  0.7406960

 Al 
  0.7355960  0.0047733  0.7501770

 Al 
  0.7372271  0.2532932  0.4982142

 Al 
  0.5071246  0.5132271  0.4861009

 Al 
  0.5100280  0.7501200  0.7477216

 Al 
  0.7465559  0.4900166  0.7478504

 Al 
  0.7579538  0.7360762  0.4840552

