32 
charge = 0 
 Al 
  0.9761262  0.9815145  0.0130538

 Al 
  0.9948233  0.2537164  0.2410784

 Al 
  0.2372444  0.0112024  0.2579612

 Al 
  0.2487699  0.2633112  0.0087644

 Al 
  0.4977439  0.0077892  0.0371801

 Al 
  0.5057349  0.2590825  0.2606084

 Al 
  0.7428927  0.0064452  0.2624066

 Al 
  0.7420784  0.2594587  0.9906997

 Al 
  0.0049168  0.4929447  0.9884721

 Al 
  0.0112420  0.7365328  0.2571024

 Al 
  0.2537709  0.5039874  0.2399139

 Al 
  0.2327583  0.7507054  0.9997215

 Al 
  0.0034417  0.9906218  0.4946488

 Al 
  0.9905859  0.2256559  0.7434384

 Al 
  0.2530036  0.0138025  0.7754579

 Al 
  0.2630229  0.2521521  0.4864351

 Al 
  0.0008316  0.4730731  0.4989815

 Al 
  0.9921699  0.7525506  0.7447552

 Al 
  0.2554527  0.5108534  0.7395760

 Al 
  0.2658396  0.7659237  0.4985966

 Al 
  0.5045109  0.4890414  0.0041570

 Al 
  0.5126590  0.7564229  0.2462514

 Al 
  0.7711054  0.4880303  0.2431328

 Al 
  0.7375390  0.7459198  0.0082323

 Al 
  0.5163841  0.9993911  0.4985471

 Al 
  0.4910450  0.2636516  0.7421390

 Al 
  0.7334550  0.0055901  0.7524083

 Al 
  0.7369425  0.2523378  0.4991745

 Al 
  0.5067163  0.5133756  0.4871467

 Al 
  0.5086580  0.7464618  0.7487166

 Al 
  0.7480323  0.4914138  0.7465361

 Al 
  0.7604995  0.7370365  0.4847037

