32 
charge = 0 
 Al 
  0.9762957  0.9800777  0.0101641

 Al 
  0.9950188  0.2526187  0.2422009

 Al 
  0.2366739  0.0101889  0.2580454

 Al 
  0.2482352  0.2618893  0.0089996

 Al 
  0.4974209  0.0081246  0.0388050

 Al 
  0.5065566  0.2593411  0.2605725

 Al 
  0.7426402  0.0060232  0.2625613

 Al 
  0.7426736  0.2589909  0.9893929

 Al 
  0.0057769  0.4921427  0.9863955

 Al 
  0.0108138  0.7364660  0.2579501

 Al 
  0.2530976  0.5045183  0.2386194

 Al 
  0.2334105  0.7503886  0.9988738

 Al 
  0.0042226  0.9920412  0.4948035

 Al 
  0.9909460  0.2265012  0.7436686

 Al 
  0.2512338  0.0125835  0.7735657

 Al 
  0.2637815  0.2508106  0.4862482

 Al 
  0.0013539  0.4743577  0.4976561

 Al 
  0.9904992  0.7519974  0.7445003

 Al 
  0.2573437  0.5106406  0.7398755

 Al 
  0.2664769  0.7653841  0.4991461

 Al 
  0.5057695  0.4905227  0.0054577

 Al 
  0.5090750  0.7574576  0.2466227

 Al 
  0.7711772  0.4892481  0.2429051

 Al 
  0.7398111  0.7482798  0.0069031

 Al 
  0.5156044  0.9993156  0.5004864

 Al 
  0.4896342  0.2647183  0.7432342

 Al 
  0.7319563  0.0060690  0.7540976

 Al 
  0.7369474  0.2516942  0.4999369

 Al 
  0.5064242  0.5133855  0.4879610

 Al 
  0.5076506  0.7438926  0.7494889

 Al 
  0.7491721  0.4925400  0.7455460

 Al 
  0.7623076  0.7377890  0.4853213

