32 
charge = 0 
 Al 
  0.9761707  0.9810084  0.0120811

 Al 
  0.9948827  0.2533625  0.2414546

 Al 
  0.2370378  0.0108720  0.2580095

 Al 
  0.2485867  0.2628471  0.0088535

 Al 
  0.4976412  0.0078969  0.0377704

 Al 
  0.5060146  0.2591691  0.2606133

 Al 
  0.7427825  0.0063079  0.2624709

 Al 
  0.7422702  0.2593226  0.9902480

 Al 
  0.0052225  0.4926699  0.9877729

 Al 
  0.0111059  0.7365044  0.2573932

 Al 
  0.2535407  0.5041656  0.2394572

 Al 
  0.2329538  0.7505928  0.9994332

 Al 
  0.0037164  0.9910908  0.4946946

 Al 
  0.9907010  0.2259207  0.7435053

 Al 
  0.2524021  0.0134028  0.7748317

 Al 
  0.2632951  0.2516930  0.4863534

 Al 
  0.0010024  0.4734902  0.4985310

 Al 
  0.9916056  0.7523699  0.7446711

 Al 
  0.2560999  0.5107915  0.7396763

 Al 
  0.2660648  0.7657517  0.4987798

 Al 
  0.5049428  0.4895203  0.0045988

 Al 
  0.5114673  0.7567905  0.2463653

 Al 
  0.7711586  0.4884251  0.2430548

 Al 
  0.7382951  0.7467229  0.0077929

 Al 
  0.5161465  0.9993713  0.4991919

 Al 
  0.4905623  0.2640203  0.7425041

 Al 
  0.7329452  0.0057633  0.7529714

 Al 
  0.7369239  0.2521150  0.4994258

 Al 
  0.5066172  0.5133892  0.4874177

 Al 
  0.5083189  0.7455856  0.7489716

 Al 
  0.7484110  0.4917838  0.7462056

 Al 
  0.7611158  0.7372853  0.4848993

