32 
charge = 0 
 Al 
  0.9763774  0.9796557  0.0092211

 Al 
  0.9950955  0.2522301  0.2425684

 Al 
  0.2365155  0.0098361  0.2580343

 Al 
  0.2480657  0.2613967  0.0090565

 Al 
  0.4973034  0.0082446  0.0392468

 Al 
  0.5068190  0.2594265  0.2605279

 Al 
  0.7426080  0.0058784  0.2625885

 Al 
  0.7428840  0.2587978  0.9889906

 Al 
  0.0060257  0.4918903  0.9857185

 Al 
  0.0106591  0.7364561  0.2582125

 Al 
  0.2528860  0.5046916  0.2382382

 Al 
  0.2336704  0.7502970  0.9986028

 Al 
  0.0044540  0.9925202  0.4948691

 Al 
  0.9910747  0.2268155  0.7437627

 Al 
  0.2506695  0.0121665  0.7729258

 Al 
  0.2639944  0.2503911  0.4862247

 Al 
  0.0015358  0.4748069  0.4972340

 Al 
  0.9899597  0.7518056  0.7444124

 Al 
  0.2579377  0.5105527  0.7399733

 Al 
  0.2666625  0.7651886  0.4993292

 Al 
  0.5061643  0.4910438  0.0058722

 Al 
  0.5078796  0.7577583  0.2467638

 Al 
  0.7711462  0.4896725  0.2428345

 Al 
  0.7405648  0.7490310  0.0064564

 Al 
  0.5153012  0.9992810  0.5011324

 Al 
  0.4891887  0.2650463  0.7435993

 Al 
  0.7314786  0.0062027  0.7546582

 Al 
  0.7369907  0.2514962  0.5001968

 Al 
  0.5063326  0.5133719  0.4882333

 Al 
  0.5073227  0.7430783  0.7497512

 Al 
  0.7495532  0.4929236  0.7452181

 Al 
  0.7628793  0.7380439  0.4855465

