32 
charge = 0 
 Al 
  0.9777783  0.9772487  0.0013477

 Al 
  0.9958876  0.2484295  0.2456524

 Al 
  0.2357594  0.0063549  0.2571048

 Al 
  0.2468046  0.2566259  0.0091134

 Al 
  0.4960089  0.0095008  0.0410190

 Al 
  0.5088832  0.2602074  0.2595144

 Al 
  0.7434026  0.0044688  0.2623793

 Al 
  0.7450188  0.2564279  0.9861566

 Al 
  0.0074761  0.4899720  0.9800715

 Al 
  0.0091307  0.7367271  0.2600478

 Al 
  0.2512561  0.5060480  0.2359227

 Al 
  0.2368521  0.7497698  0.9963467

 Al 
  0.0059007  0.9968838  0.4957552

 Al 
  0.9924447  0.2303314  0.7449099

 Al 
  0.2461722  0.0081791  0.7670276

 Al 
  0.2650537  0.2472749  0.4867915

 Al 
  0.0034058  0.4791632  0.4939137

 Al 
  0.9856653  0.7499629  0.7435548

 Al 
  0.2622741  0.5093943  0.7408235

 Al 
  0.2676340  0.7630835  0.5010259

 Al 
  0.5091753  0.4961809  0.0091741

 Al 
  0.4973999  0.7595094  0.2483714

 Al 
  0.7698307  0.4937689  0.2422937

 Al 
  0.7469321  0.7548240  0.0025741

 Al 
  0.5117568  0.9987513  0.5068858

 Al 
  0.4858237  0.2673308  0.7469581

 Al 
  0.7276372  0.0068672  0.7596183

 Al 
  0.7382221  0.2501200  0.5026311

 Al 
  0.5056940  0.5128719  0.4905574

 Al 
  0.5046384  0.7368546  0.7522276

 Al 
  0.7529367  0.4964321  0.7423729

 Al 
  0.7671489  0.7404361  0.4878595

