32 
charge = 0 
 Al 
  0.9780197  0.9771410  0.0005346

 Al 
  0.9959767  0.2479828  0.2459693

 Al 
  0.2357420  0.0059292  0.2569180

 Al 
  0.2466920  0.2560566  0.0090713

 Al 
  0.4958393  0.0096567  0.0409769

 Al 
  0.5090825  0.2602978  0.2593448

 Al 
  0.7435993  0.0042981  0.2623162

 Al 
  0.7452812  0.2561074  0.9859289

 Al 
  0.0075566  0.4897975  0.9794911

 Al 
  0.0089513  0.7368026  0.2601851

 Al 
  0.2511039  0.5061692  0.2357792

 Al 
  0.2372939  0.7497364  0.9961091

 Al 
  0.0059948  0.9973727  0.4958876

 Al 
  0.9926229  0.2307967  0.7450646

 Al 
  0.2457329  0.0077038  0.7663470

 Al 
  0.2650822  0.2470001  0.4869313

 Al 
  0.0036471  0.4796817  0.4935944

 Al 
  0.9852606  0.7497438  0.7434496

 Al 
  0.2626343  0.5092260  0.7409175

 Al 
  0.2676563  0.7628100  0.5012277

 Al 
  0.5094575  0.4967997  0.0094958

 Al 
  0.4962712  0.7596072  0.2485830

 Al 
  0.7695857  0.4942478  0.2422430

 Al 
  0.7475744  0.7553537  0.0021682

 Al 
  0.5112804  0.9986709  0.5075182

 Al 
  0.4855218  0.2675090  0.7473467

 Al 
  0.7272524  0.0068870  0.7601604

 Al 
  0.7384474  0.2500087  0.5029120

 Al 
  0.5056458  0.5127766  0.4907962

 Al 
  0.5043711  0.7362866  0.7525234

 Al 
  0.7533080  0.4968207  0.7420685

 Al 
  0.7675165  0.7407195  0.4881417

