32 
charge = 0 
 Al 
  0.9795604  0.9771125  0.9965880

 Al 
  0.9963777  0.2456846  0.2474853

 Al 
  0.2358336  0.0036582  0.2557670

 Al 
  0.2462056  0.2530543  0.0087248

 Al 
  0.4949161  0.0104797  0.0400574

 Al 
  0.5100094  0.2607631  0.2583758

 Al 
  0.7448753  0.0033748  0.2619103

 Al 
  0.7466833  0.2543723  0.9850403

 Al 
  0.0077570  0.4890525  0.9767029

 Al 
  0.0080466  0.7373385  0.2606517

 Al 
  0.2504146  0.5066779  0.2353572

 Al 
  0.2397691  0.7496188  0.9949062

 Al 
  0.0062843  0.9998354  0.4966759

 Al 
  0.9936105  0.2333585  0.7459000

 Al 
  0.2436822  0.0051903  0.7628026

 Al 
  0.2649906  0.2458034  0.4878496

 Al 
  0.0049861  0.4823981  0.4921266

 Al 
  0.9834835  0.7486152  0.7428815

 Al 
  0.2640476  0.5082719  0.7413977

 Al 
  0.2674793  0.7612965  0.5023105

 Al 
  0.5107507  0.5000656  0.0109896

 Al 
  0.4906861  0.7598510  0.2497413

 Al 
  0.7681093  0.4967291  0.2420140

 Al 
  0.7505581  0.7576506  0.0002351

 Al 
  0.5086382  0.9982055  0.5106950

 Al 
  0.4842248  0.2681674  0.7493862

 Al 
  0.7254245  0.0068289  0.7628521

 Al 
  0.7398309  0.2495483  0.5043599

 Al 
  0.5054775  0.5121912  0.4919162

 Al 
  0.5031224  0.7338102  0.7540988

 Al 
  0.7551544  0.4987600  0.7405735

 Al 
  0.7690102  0.7422355  0.4896280

