32 
charge = 0 
 Al 
  0.9812559  0.9777288  0.9935176

 Al 
  0.9966264  0.2437738  0.2486337

 Al 
  0.2361071  0.0016373  0.2546062

 Al 
  0.2458962  0.2504294  0.0082719

 Al 
  0.4940845  0.0111653  0.0384622

 Al 
  0.5106715  0.2611443  0.2574749

 Al 
  0.7462242  0.0025382  0.2614895

 Al 
  0.7479308  0.2528513  0.9846431

 Al 
  0.0076865  0.4886268  0.9745990

 Al 
  0.0073066  0.7379919  0.2607309

 Al 
  0.2499455  0.5069440  0.2353510

 Al 
  0.2420808  0.7495594  0.9938926

 Al 
  0.0062955  0.0018427  0.4974766

 Al 
  0.9945498  0.2357037  0.7466227

 Al 
  0.2421922  0.0029652  0.7597396

 Al 
  0.2646503  0.2450374  0.4888347

 Al 
  0.0062472  0.4847619  0.4910834

 Al 
  0.9823944  0.7476771  0.7423741

 Al 
  0.2646713  0.5073610  0.7418135

 Al 
  0.2669435  0.7598770  0.5032993

 Al 
  0.5116677  0.5029194  0.0120576

 Al 
  0.4862494  0.7597805  0.2507995

 Al 
  0.7666452  0.4988416  0.2418593

 Al 
  0.7526756  0.7590453  0.9987996

 Al 
  0.5062027  0.9977699  0.5132729

 Al 
  0.4834439  0.2683865  0.7511744

 Al 
  0.7240496  0.0065950  0.7649856

 Al 
  0.7412529  0.2492698  0.5055839

 Al 
  0.5054279  0.5115786  0.4927268

 Al 
  0.5022301  0.7322682  0.7554985

 Al 
  0.7566271  0.5003119  0.7394040

 Al 
  0.7697676  0.7436117  0.4909200

