32 
charge = 0 
 Al 
  0.9803512  0.9773464  0.9950460

 Al 
  0.9965113  0.2447366  0.2480657

 Al 
  0.2359487  0.0026719  0.2552114

 Al 
  0.2460423  0.2517697  0.0085181

 Al 
  0.4945114  0.0108212  0.0393570

 Al 
  0.5103485  0.2609537  0.2579365

 Al 
  0.7455138  0.0029701  0.2617098

 Al 
  0.7472922  0.2536236  0.9848052

 Al 
  0.0077459  0.4888186  0.9756361

 Al 
  0.0076791  0.7376380  0.2607260

 Al 
  0.2501720  0.5068289  0.2353188

 Al 
  0.2408878  0.7495867  0.9944087

 Al 
  0.0063153  0.0008354  0.4970558

 Al 
  0.9940609  0.2344983  0.7462576

 Al 
  0.2429224  0.0041038  0.7613002

 Al 
  0.2648495  0.2454012  0.4883149

 Al 
  0.0055938  0.4835565  0.4915920

 Al 
  0.9828981  0.7481486  0.7426340

 Al 
  0.2644188  0.5078338  0.7416019

 Al 
  0.2672590  0.7606133  0.5027882

 Al 
  0.5112210  0.5014640  0.0115366

 Al 
  0.4884659  0.7598423  0.2502549

 Al 
  0.7674076  0.4977699  0.2419323

 Al 
  0.7516472  0.7583993  0.9995037

 Al 
  0.5074576  0.9979939  0.5119784

 Al 
  0.4838053  0.2683134  0.7502599

 Al 
  0.7247277  0.0067336  0.7639213

 Al 
  0.7405067  0.2494010  0.5049639

 Al 
  0.5054440  0.5119016  0.4923308

 Al 
  0.5026645  0.7329897  0.7547819

 Al 
  0.7558920  0.4995347  0.7399856

 Al 
  0.7694396  0.7429026  0.4902616

