32 
charge = 0 
 Al 
  0.9822818  0.9782622  0.9919992

 Al 
  0.9967205  0.2427999  0.2491882

 Al 
  0.2363064  0.0005544  0.2539552

 Al 
  0.2457626  0.2490335  0.0079848

 Al 
  0.4936389  0.0115081  0.0373731

 Al 
  0.5109747  0.2613324  0.2569922

 Al 
  0.7470001  0.0020803  0.2612519

 Al 
  0.7486016  0.2520593  0.9845565

 Al 
  0.0075801  0.4884808  0.9735966

 Al 
  0.0069291  0.7384078  0.2606628

 Al 
  0.2497352  0.5070182  0.2354512

 Al 
  0.2433481  0.7495334  0.9933568

 Al 
  0.0062249  0.0028588  0.4979407

 Al 
  0.9950782  0.2369734  0.7469915

 Al 
  0.2414942  0.0017722  0.7581172

 Al 
  0.2643941  0.2447131  0.4894089

 Al 
  0.0069489  0.4860168  0.4905982

 Al 
  0.9819799  0.7472056  0.7421006

 Al 
  0.2647988  0.5068561  0.7420350

 Al 
  0.2665252  0.7590862  0.5038476

 Al 
  0.5120910  0.5044329  0.0125501

 Al 
  0.4840404  0.7596691  0.2513737

 Al 
  0.7658272  0.4999468  0.2417937

 Al 
  0.7536397  0.7595862  0.9981239

 Al 
  0.5048772  0.9975360  0.5145772

 Al 
  0.4831444  0.2683803  0.7521323

 Al 
  0.7233887  0.0064130  0.7660363

 Al 
  0.7420709  0.2491510  0.5062200

 Al 
  0.5054317  0.5112247  0.4931055

 Al 
  0.5018229  0.7316519  0.7562485

 Al 
  0.7573548  0.5010878  0.7388273

 Al 
  0.7699866  0.7443679  0.4916031

