32 
charge = 0 
 Al 
  0.9834328  0.9789503  0.9904918

 Al 
  0.9967935  0.2418222  0.2497290

 Al 
  0.2365427  0.9994270  0.2532647

 Al 
  0.2456425  0.2475855  0.0076605

 Al 
  0.4931761  0.0118435  0.0360886

 Al 
  0.5112593  0.2615168  0.2564923

 Al 
  0.7478355  0.0015915  0.2609945

 Al 
  0.7493045  0.2512586  0.9845503

 Al 
  0.0074303  0.4883842  0.9726375

 Al 
  0.0065479  0.7388867  0.2605168

 Al 
  0.2495396  0.5070454  0.2356170

 Al 
  0.2446822  0.7495062  0.9927986

 Al 
  0.0060999  0.0038785  0.4984481

 Al 
  0.9956512  0.2383013  0.7473578

 Al 
  0.2408297  0.0005260  0.7564353

 Al 
  0.2640822  0.2444260  0.4900351

 Al 
  0.0077001  0.4873187  0.4901366

 Al 
  0.9816667  0.7467390  0.7418148

 Al 
  0.2647938  0.5063202  0.7422665

 Al 
  0.2659955  0.7582335  0.5044342

 Al 
  0.5124895  0.5059985  0.0130130

 Al 
  0.4818487  0.7595119  0.2519751

 Al 
  0.7649597  0.5010853  0.2417380

 Al 
  0.7545394  0.7600156  0.9974828

 Al 
  0.5034837  0.9972935  0.5158878

 Al 
  0.4829093  0.2682912  0.7531360

 Al 
  0.7227464  0.0061853  0.7670672

 Al 
  0.7429607  0.2490397  0.5068697

 Al 
  0.5054527  0.5108398  0.4934644

 Al 
  0.5014442  0.7311445  0.7570294

 Al 
  0.7580701  0.5018601  0.7382592

 Al 
  0.7700894  0.7451760  0.4923085

