32 
charge = 0 
 Al 
  0.9917306  0.9852037  0.9827843

 Al 
  0.9968417  0.2369115  0.2522363

 Al 
  0.2382493  0.9929397  0.2491362

 Al 
  0.2450485  0.2392023  0.0053611

 Al 
  0.4905958  0.0131998  0.0260853

 Al 
  0.5123348  0.2622358  0.2536459

 Al 
  0.7529404  0.9984110  0.2593337

 Al 
  0.7535691  0.2472031  0.9860650

 Al 
  0.0060294  0.4889696  0.9687998

 Al 
  0.0044540  0.7426192  0.2582508

 Al 
  0.2486337  0.5061296  0.2374313

 Al 
  0.2525840  0.7491943  0.9894077

 Al 
  0.0044441  0.0091518  0.5018700

 Al 
  0.9995656  0.2460237  0.7489654

 Al 
  0.2379598  0.9931835  0.7466994

 Al 
  0.2614908  0.2435597  0.4941154

 Al 
  0.0124895  0.4949668  0.4880427

 Al 
  0.9821444  0.7445906  0.7401799

 Al 
  0.2623769  0.5030271  0.7436686

 Al 
  0.2610341  0.7524912  0.5082793

 Al 
  0.5140921  0.5149361  0.0148347

 Al 
  0.4710967  0.7581283  0.2556099

 Al 
  0.7598077  0.5076382  0.2417380

 Al 
  0.7582026  0.7602903  0.9948542

 Al 
  0.4952552  0.9959556  0.5227489

 Al 
  0.4829105  0.2661663  0.7592211

 Al 
  0.7198171  0.0041594  0.7717155

 Al 
  0.7487773  0.2484431  0.5104797

 Al 
  0.5058475  0.5083573  0.4951673

 Al 
  0.5000260  0.7305096  0.7614351

 Al 
  0.7613002  0.5057782  0.7355020

 Al 
  0.7683493  0.7504232  0.4963368

