32 
charge = 0 
 Al 
  0.9934644  0.9866653  0.9815888

 Al 
  0.9968108  0.2362160  0.2525543

 Al 
  0.2385699  0.9918482  0.2484184

 Al 
  0.2449210  0.2377469  0.0049007

 Al 
  0.4901775  0.0132988  0.0239171

 Al 
  0.5124214  0.2622729  0.2531558

 Al 
  0.7538315  0.9977786  0.2589996

 Al 
  0.7543674  0.2466314  0.9866120

 Al 
  0.0057175  0.4893087  0.9684929

 Al 
  0.0040976  0.7434459  0.2575924

 Al 
  0.2484815  0.5057460  0.2378546

 Al 
  0.2539441  0.7490879  0.9887840

 Al 
  0.0039788  0.0099512  0.5025494

 Al 
  0.0003812  0.2473454  0.7491226

 Al 
  0.2376194  0.9918977  0.7450188

 Al 
  0.2609066  0.2435325  0.4948975

 Al 
  0.0133917  0.4963368  0.4877543

 Al 
  0.9826630  0.7443394  0.7399163

 Al 
  0.2615613  0.5024219  0.7439310

 Al 
  0.2598064  0.7512994  0.5090317

 Al 
  0.5142456  0.5164497  0.0150005

 Al 
  0.4695968  0.7578387  0.2562806

 Al 
  0.7589216  0.5087991  0.2418160

 Al 
  0.7586394  0.7599809  0.9945894

 Al 
  0.4938221  0.9957403  0.5238144

 Al 
  0.4831518  0.2655042  0.7603460

 Al 
  0.7194631  0.0036855  0.7722464

 Al 
  0.7498973  0.2483231  0.5110886

 Al 
  0.5059514  0.5078907  0.4954433

 Al 
  0.4999109  0.7307856  0.7621393

 Al 
  0.7616665  0.5063648  0.7351146

 Al 
  0.7676179  0.7514665  0.4970286

