32 
charge = 0 
 Al 
  0.9900351  0.9838114  0.9840614

 Al 
  0.9968665  0.2376863  0.2518650

 Al 
  0.2379202  0.9940857  0.2498812

 Al 
  0.2451648  0.2407084  0.0058190

 Al 
  0.4910400  0.0130451  0.0281880

 Al 
  0.5122123  0.2621628  0.2541520

 Al 
  0.7520148  0.9990359  0.2596604

 Al 
  0.7527672  0.2478429  0.9855948

 Al 
  0.0063326  0.4887060  0.9692478

 Al 
  0.0048215  0.7418247  0.2588411

 Al 
  0.2487860  0.5064452  0.2370229

 Al 
  0.2511645  0.7492835  0.9900413

 Al 
  0.0048624  0.0082842  0.5011967

 Al 
  0.9987723  0.2446463  0.7487562

 Al 
  0.2383607  0.9945114  0.7484444

 Al 
  0.2620514  0.2436253  0.4933308

 Al 
  0.0115774  0.4935684  0.4883620

 Al 
  0.9817571  0.7448951  0.7404633

 Al 
  0.2630959  0.5036397  0.7434050

 Al 
  0.2621776  0.7536496  0.5075281

 Al 
  0.5138916  0.5133545  0.0146131

 Al 
  0.4727749  0.7584154  0.2549329

 Al 
  0.7607309  0.5064514  0.2416873

 Al 
  0.7577014  0.7604982  0.9951896

 Al 
  0.4967390  0.9961846  0.5216054

 Al 
  0.4827410  0.2667529  0.7580838

 Al 
  0.7202403  0.0046099  0.7710658

 Al 
  0.7476536  0.2485595  0.5098460

 Al 
  0.5057497  0.5088288  0.4948852

 Al 
  0.5001881  0.7303475  0.7606777

 Al 
  0.7608509  0.5051421  0.7359326

 Al 
  0.7689595  0.7493948  0.4956203

