32 
charge = 0 
 Al 
  0.9908767  0.9844983  0.9834129

 Al 
  0.9968554  0.2372890  0.2520568

 Al 
  0.2380847  0.9935065  0.2495062

 Al 
  0.2451079  0.2399510  0.0055901

 Al 
  0.4908148  0.0131293  0.0271472

 Al 
  0.5122779  0.2622036  0.2538971

 Al 
  0.7524813  0.9987253  0.2594983

 Al 
  0.7531682  0.2475150  0.9858200

 Al 
  0.0061829  0.4888285  0.9690065

 Al 
  0.0046359  0.7422170  0.2585553

 Al 
  0.2487105  0.5062955  0.2372246

 Al 
  0.2518799  0.7492401  0.9897233

 Al 
  0.0046594  0.0087261  0.5015321

 Al 
  0.9991659  0.2453406  0.7488664

 Al 
  0.2381528  0.9938431  0.7475657

 Al 
  0.2617742  0.2435870  0.4937231

 Al 
  0.0120341  0.4942701  0.4881986

 Al 
  0.9819341  0.7447366  0.7403198

 Al 
  0.2627506  0.5033328  0.7435362

 Al 
  0.2616170  0.7530753  0.5079031

 Al 
  0.5139981  0.5141528  0.0147307

 Al 
  0.4719148  0.7582719  0.2552708

 Al 
  0.7602643  0.5070479  0.2417096

 Al 
  0.7579612  0.7604079  0.9950126

 Al 
  0.4959915  0.9960695  0.5221858

 Al 
  0.4828164  0.2664695  0.7586530

 Al 
  0.7200200  0.0043872  0.7714049

 Al 
  0.7482154  0.2485025  0.5101653

 Al 
  0.5057980  0.5085924  0.4950275

 Al 
  0.5001015  0.7304143  0.7610626

 Al 
  0.7610848  0.5054663  0.7357123

 Al 
  0.7686699  0.7499072  0.4959804

