32 
charge = 0 
 Al 
  0.9925944  0.9859264  0.9821754

 Al 
  0.9968269  0.2365526  0.2524021

 Al 
  0.2384115  0.9923865  0.2487736

 Al 
  0.2449866  0.2384672  0.0051309

 Al 
  0.4903829  0.0132568  0.0250074

 Al 
  0.5123831  0.2622593  0.2533983

 Al 
  0.7533909  0.9980954  0.2591679

 Al 
  0.7539701  0.2469086  0.9863286

 Al 
  0.0058747  0.4891305  0.9686278

 Al 
  0.0042745  0.7430288  0.2579303

 Al 
  0.2485582  0.5059453  0.2376417

 Al 
  0.2532734  0.7491424  0.9890946

 Al 
  0.0042164  0.0095602  0.5022090

 Al 
  0.9999715  0.2466920  0.7490508

 Al 
  0.2377815  0.9925350  0.7458505

 Al 
  0.2612012  0.2435412  0.4945077

 Al 
  0.0129424  0.4956562  0.4878954

 Al 
  0.9823870  0.7444582  0.7400450

 Al 
  0.2619808  0.5027226  0.7437998

 Al 
  0.2604289  0.7518984  0.5086555

 Al 
  0.5141750  0.5157022  0.0149250

 Al 
  0.4703233  0.7579835  0.2559465

 Al 
  0.7593584  0.5082224  0.2417727

 Al 
  0.7584290  0.7601480  0.9947131

 Al 
  0.4945312  0.9958467  0.5232922

 Al 
  0.4830231  0.2658445  0.7597854

 Al 
  0.7196315  0.0039243  0.7719964

 Al 
  0.7493391  0.2483837  0.5107878

 Al 
  0.5058995  0.5081234  0.4953059

 Al 
  0.4999629  0.7306334  0.7617952

 Al 
  0.7614945  0.5060789  0.7353027

 Al 
  0.7679979  0.7509443  0.4966858

