32 
charge = 0 
 Al 
  0.9969643  0.9897134  0.9794713

 Al 
  0.9967489  0.2350973  0.2530246

 Al 
  0.2391540  0.9898780  0.2470917

 Al 
  0.2446154  0.2350441  0.0039973

 Al 
  0.4894411  0.0133149  0.0194792

 Al 
  0.5124882  0.2622358  0.2522363

 Al 
  0.7554539  0.9965101  0.2583016

 Al 
  0.7559353  0.2457044  0.9879164

 Al 
  0.0050889  0.4902059  0.9683320

 Al 
  0.0034367  0.7451611  0.2560925

 Al 
  0.2481696  0.5047819  0.2386998

 Al 
  0.2564106  0.7488218  0.9876009

 Al 
  0.0029231  0.0113113  0.5038872

 Al 
  0.0020581  0.2497785  0.7492785

 Al 
  0.2371281  0.9895055  0.7419249

 Al 
  0.2596938  0.2435956  0.4964185

 Al 
  0.0151205  0.4989481  0.4872642

 Al 
  0.9840614  0.7440114  0.7394659

 Al 
  0.2597000  0.5012524  0.7444582

 Al 
  0.2571519  0.7488515  0.5104995

 Al 
  0.5144102  0.5192070  0.0151663

 Al 
  0.4671836  0.7572719  0.2575962

 Al 
  0.7573041  0.5110155  0.2420623

 Al 
  0.7593424  0.7591072  0.9942800

 Al 
  0.4911737  0.9953530  0.5256683

 Al 
  0.4838350  0.2639968  0.7625217

 Al 
  0.7189916  0.0026867  0.7729308

 Al 
  0.7520729  0.2480645  0.5122086

 Al 
  0.5061606  0.5069922  0.4959841

 Al 
  0.4998144  0.7316507  0.7633372

 Al 
  0.7621368  0.5073672  0.7344847

 Al 
  0.7658321  0.7535629  0.4983206

