32 
charge = 0 
 Al 
  0.9995582  0.9920462  0.9781298

 Al 
  0.9967192  0.2345082  0.2532263

 Al 
  0.2395240  0.9886181  0.2462106

 Al 
  0.2443344  0.2332422  0.0033501

 Al 
  0.4889832  0.0131553  0.0161316

 Al 
  0.5124462  0.2621058  0.2516051

 Al 
  0.7565071  0.9955683  0.2577447

 Al 
  0.7570764  0.2452044  0.9890562

 Al 
  0.0046272  0.4910673  0.9686179

 Al 
  0.0029924  0.7464729  0.2548290

 Al 
  0.2479209  0.5038958  0.2393037

 Al 
  0.2579885  0.7485793  0.9867915

 Al 
  0.0020308  0.0120996  0.5048562

 Al 
  0.0033377  0.2514022  0.7492550

 Al 
  0.2369165  0.9878929  0.7398817

 Al 
  0.2587657  0.2437392  0.4975014

 Al 
  0.0163098  0.5007698  0.4869648

 Al 
  0.9853918  0.7439236  0.7392085

 Al 
  0.2581605  0.5004096  0.7448567

 Al 
  0.2550319  0.7469828  0.5115328

 Al 
  0.5144114  0.5209990  0.0151490

 Al 
  0.4659089  0.7568648  0.2585602

 Al 
  0.7562423  0.5125749  0.2423308

 Al 
  0.7597545  0.7582719  0.9942305

 Al 
  0.4894127  0.9950993  0.5267932

 Al 
  0.4845032  0.2627407  0.7640674

 Al 
  0.7188716  0.0019096  0.7731028

 Al 
  0.7536149  0.2478578  0.5129585

 Al 
  0.5063079  0.5063574  0.4963925

 Al 
  0.4998540  0.7325442  0.7640142

 Al 
  0.7622581  0.5079637  0.7341443

 Al 
  0.7642394  0.7551309  0.4992042

