32 
charge = 0 
 Al 
  0.9960905  0.9889411  0.9799651

 Al 
  0.9967638  0.2353411  0.2529281

 Al 
  0.2390166  0.9903408  0.2474073

 Al 
  0.2446983  0.2356901  0.0042189

 Al 
  0.4896119  0.0133347  0.0205955

 Al 
  0.5124845  0.2622593  0.2524578

 Al 
  0.7550703  0.9968269  0.2584810

 Al 
  0.7555480  0.2459086  0.9875662

 Al 
  0.0052448  0.4899547  0.9683134

 Al 
  0.0035951  0.7447267  0.2564885

 Al 
  0.2482488  0.5050468  0.2384907

 Al 
  0.2558302  0.7488949  0.9878867

 Al 
  0.0032016  0.0110032  0.5035568

 Al 
  0.0016348  0.2491993  0.7492599

 Al 
  0.2372284  0.9900785  0.7426600

 Al 
  0.2600007  0.2435659  0.4960448

 Al 
  0.0147010  0.4983132  0.4873756

 Al 
  0.9836691  0.7440708  0.7395673

 Al 
  0.2601889  0.5015395  0.7443258

 Al 
  0.2578362  0.7494703  0.5101406

 Al 
  0.5143867  0.5185548  0.0151453

 Al 
  0.4677108  0.7574118  0.2572719

 Al 
  0.7576877  0.5104760  0.2419880

 Al 
  0.7591852  0.7593547  0.9943307

 Al 
  0.4918049  0.9954445  0.5252413

 Al 
  0.4836407  0.2643941  0.7619895

 Al 
  0.7190783  0.0029417  0.7728083

 Al 
  0.7515395  0.2481300  0.5119412

 Al 
  0.5061086  0.5072125  0.4958492

 Al 
  0.4998218  0.7313970  0.7630674

 Al 
  0.7620526  0.5071383  0.7346233

 Al 
  0.7663173  0.7530395  0.4980100

