32 
charge = 0 
 Al 
  0.0004096  0.9928246  0.9777288

 Al 
  0.9967155  0.2343609  0.2532659

 Al 
  0.2396329  0.9882419  0.2459383

 Al 
  0.2442305  0.2326877  0.0031409

 Al 
  0.4888508  0.0130674  0.0150178

 Al 
  0.5124152  0.2620415  0.2514046

 Al 
  0.7568239  0.9952577  0.2575491

 Al 
  0.7574501  0.2450733  0.9894646

 Al 
  0.0044763  0.4913890  0.9687911

 Al 
  0.0028538  0.7469110  0.2543834

 Al 
  0.2478343  0.5035704  0.2394968

 Al 
  0.2584563  0.7484914  0.9865390

 Al 
  0.0017153  0.0123175  0.5051705

 Al 
  0.0037671  0.2519071  0.7492203

 Al 
  0.2368744  0.9873917  0.7392567

 Al 
  0.2584550  0.2438048  0.4978504

 Al 
  0.0166823  0.5013502  0.4868769

 Al 
  0.9858844  0.7439248  0.7391404

 Al 
  0.2576271  0.5001349  0.7449916

 Al 
  0.2543080  0.7463554  0.5118596

 Al 
  0.5143891  0.5215398  0.0151181

 Al 
  0.4655859  0.7567336  0.2588783

 Al 
  0.7559180  0.5130761  0.2424373

 Al 
  0.7598770  0.7579662  0.9942453

 Al 
  0.4888706  0.9950213  0.5271162

 Al 
  0.4847532  0.2623038  0.7645636

 Al 
  0.7188790  0.0016472  0.7730966

 Al 
  0.7541075  0.2477885  0.5131924

 Al 
  0.5063524  0.5061532  0.4965311

 Al 
  0.4998874  0.7328845  0.7641936

 Al 
  0.7622556  0.5081333  0.7340565

 Al 
  0.7636627  0.7556519  0.4994839

