32 
charge = 0 
 Al 
  0.0069167  0.9989666  0.9752512

 Al 
  0.9968529  0.2340379  0.2531224

 Al 
  0.2402294  0.9860044  0.2441736

 Al 
  0.2432120  0.2291681  0.0016076

 Al 
  0.4881083  0.0116467  0.0061544

 Al 
  0.5118695  0.2611616  0.2499554

 Al 
  0.7587384  0.9927999  0.2557262

 Al 
  0.7603584  0.2445968  0.9932033

 Al 
  0.0033600  0.4946265  0.9715856

 Al 
  0.0019405  0.7504430  0.2503577

 Al 
  0.2470534  0.5003898  0.2408160

 Al 
  0.2611145  0.7476598  0.9848559

 Al 
  0.9988540  0.0132234  0.5075405

 Al 
  0.0072793  0.2554057  0.7485087

 Al 
  0.2369969  0.9839674  0.7352606

 Al 
  0.2559230  0.2446525  0.5004356

 Al 
  0.0191067  0.5055121  0.4863509

 Al 
  0.9905871  0.7444594  0.7389411

 Al 
  0.2530877  0.4979605  0.7461846

 Al 
  0.2482625  0.7412653  0.5140723

 Al 
  0.5138322  0.5248441  0.0144213

 Al 
  0.4647542  0.7557237  0.2614586

 Al 
  0.7538179  0.5168234  0.2436488

 Al 
  0.7606950  0.7551668  0.9948456

 Al 
  0.4853411  0.9944594  0.5287387

 Al 
  0.4872395  0.2585590  0.7682219

 Al 
  0.7199161  0.9994468  0.7718937

 Al 
  0.7576704  0.2472303  0.5147963

 Al 
  0.5066036  0.5046211  0.4977823

 Al 
  0.5005086  0.7363410  0.7647282

 Al 
  0.7615192  0.5089946  0.7338065

 Al 
  0.7582508  0.7598411  0.5015531

