32 
charge = 0 
 Al 
  0.0029169  0.9951500  0.9766534

 Al 
  0.9967266  0.2340614  0.2533055

 Al 
  0.2399126  0.9872432  0.2451933

 Al 
  0.2438852  0.2311742  0.0025382

 Al 
  0.4885055  0.0126900  0.0116875

 Al 
  0.5122741  0.2617915  0.2508329

 Al 
  0.7576704  0.9943307  0.2569279

 Al 
  0.7585528  0.2447800  0.9907690

 Al 
  0.0040394  0.4924632  0.9695448

 Al 
  0.0024714  0.7482328  0.2529714

 Al 
  0.2475608  0.5024986  0.2400401

 Al 
  0.2596839  0.7482055  0.9858361

 Al 
  0.0007128  0.0128323  0.5060888

 Al 
  0.0050666  0.2533191  0.7490421

 Al 
  0.2368274  0.9859883  0.7375526

 Al 
  0.2575157  0.2440572  0.4988602

 Al 
  0.0177132  0.5030073  0.4866442

 Al 
  0.9874932  0.7440189  0.7389906

 Al 
  0.2559762  0.4993193  0.7454111

 Al 
  0.2520878  0.7444619  0.5127778

 Al 
  0.5142592  0.5229927  0.0149498

 Al 
  0.4649139  0.7563462  0.2598324

 Al 
  0.7550319  0.5145302  0.2428135

 Al 
  0.7602074  0.7569836  0.9943753

 Al 
  0.4873831  0.9947985  0.5279268

 Al 
  0.4855836  0.2609462  0.7659992

 Al 
  0.7190560  0.0008415  0.7728825

 Al 
  0.7555245  0.2475756  0.5138446

 Al 
  0.5064737  0.5055604  0.4969667

 Al 
  0.5000483  0.7340305  0.7645859

 Al 
  0.7621244  0.5085553  0.7338684

 Al 
  0.7618026  0.7572150  0.5002871

