32 
charge = 0 
 Al 
  0.0084451  0.0004628  0.9748144

 Al 
  0.9969482  0.2341963  0.2529677

 Al 
  0.2403086  0.9856542  0.2438431

 Al 
  0.2429187  0.2285592  0.0012598

 Al 
  0.4880068  0.0110663  0.0039379

 Al 
  0.5116467  0.2608311  0.2496238

 Al 
  0.7590453  0.9921885  0.2551681

 Al 
  0.7610787  0.2446228  0.9942713

 Al 
  0.0031038  0.4956314  0.9726833

 Al 
  0.0017672  0.7513329  0.2492129

 Al 
  0.2468306  0.4994245  0.2410759

 Al 
  0.2614648  0.7474160  0.9845367

 Al 
  0.9980434  0.0132122  0.5080974

 Al 
  0.0081840  0.2561705  0.7482179

 Al 
  0.2371467  0.9832595  0.7345292

 Al 
  0.2552708  0.2449520  0.5010321

 Al 
  0.0195275  0.5064267  0.4862631

 Al 
  0.9919583  0.7447305  0.7390005

 Al 
  0.2518935  0.4974061  0.7465348

 Al 
  0.2466994  0.7399745  0.5144919

 Al 
  0.5135884  0.5253836  0.0141206

 Al 
  0.4650191  0.7554775  0.2621355

 Al 
  0.7534144  0.5177083  0.2440684

 Al 
  0.7608831  0.7543921  0.9951079

 Al 
  0.4846703  0.9943332  0.5288637

 Al 
  0.4880031  0.2575689  0.7690535

 Al 
  0.7204854  0.9988689  0.7712762

 Al 
  0.7584538  0.2471029  0.5151366

 Al 
  0.5066234  0.5042547  0.4981548

 Al 
  0.5007562  0.7374041  0.7645958

 Al 
  0.7611504  0.5090837  0.7338746

 Al 
  0.7566630  0.7609079  0.5020506

