32 
charge = 0 
 Al 
  0.0076865  0.9997178  0.9750248

 Al 
  0.9968962  0.2341047  0.2530506

 Al 
  0.2402715  0.9858188  0.2440028

 Al 
  0.2430659  0.2288488  0.0014319

 Al 
  0.4880538  0.0113695  0.0050468

 Al 
  0.5117630  0.2610019  0.2497884

 Al 
  0.7589005  0.9924942  0.2554539

 Al 
  0.7607185  0.2446030  0.9937305

 Al 
  0.0032313  0.4951178  0.9721140

 Al 
  0.0018514  0.7508873  0.2497933

 Al 
  0.2469432  0.4999158  0.2409497

 Al 
  0.2613064  0.7475397  0.9846914

 Al 
  0.9984530  0.0132295  0.5078214

 Al 
  0.0077311  0.2557918  0.7483689

 Al 
  0.2370662  0.9836060  0.7348819

 Al 
  0.2555987  0.2447985  0.5007363

 Al 
  0.0193283  0.5059750  0.4863051

 Al 
  0.9912640  0.7445894  0.7389647

 Al 
  0.2524925  0.4976845  0.7463566

 Al 
  0.2474828  0.7406205  0.5142901

 Al 
  0.5137159  0.5251287  0.0142778

 Al 
  0.4648631  0.7556000  0.2617940

 Al 
  0.7536112  0.5172677  0.2438518

 Al 
  0.7607891  0.7547819  0.9949718

 Al 
  0.4849958  0.9943951  0.5288154

 Al 
  0.4876132  0.2580664  0.7686414

 Al 
  0.7201834  0.9991585  0.7716004

 Al 
  0.7580677  0.2471660  0.5149696

 Al 
  0.5066160  0.5044379  0.4979642

 Al 
  0.5006287  0.7368620  0.7646763

 Al 
  0.7613435  0.5090453  0.7338337

 Al 
  0.7574687  0.7603732  0.5018019

