32 
charge = 0 
 Al 
  0.0045456  0.9966883  0.9760371

 Al 
  0.9967601  0.2339798  0.2532684

 Al 
  0.2400611  0.9866851  0.2447515

 Al 
  0.2436290  0.2302918  0.0021558

 Al 
  0.4883211  0.0123385  0.0094735

 Al 
  0.5121380  0.2615724  0.2504715

 Al 
  0.7581493  0.9937181  0.2564762

 Al 
  0.7592780  0.2446624  0.9917034

 Al 
  0.0037610  0.4932701  0.9702428

 Al 
  0.0022425  0.7491151  0.2519665

 Al 
  0.2473652  0.5017054  0.2403705

 Al 
  0.2603497  0.7479976  0.9854153

 Al 
  0.9999975  0.0130588  0.5066804

 Al 
  0.0059440  0.2541879  0.7488639

 Al 
  0.2368596  0.9851344  0.7365551

 Al 
  0.2568846  0.2442688  0.4995062

 Al 
  0.0183234  0.5040468  0.4865143

 Al 
  0.9886714  0.7441538  0.7389387

 Al 
  0.2548389  0.4987785  0.7457057

 Al 
  0.2505742  0.7431897  0.5133347

 Al 
  0.5141194  0.5238194  0.0147753

 Al 
  0.4647084  0.7560962  0.2604747

 Al 
  0.7545084  0.5154633  0.2431142

 Al 
  0.7604079  0.7562806  0.9945287

 Al 
  0.4865019  0.9946587  0.5283340

 Al 
  0.4862037  0.2600082  0.7669138

 Al 
  0.7193097  0.0002921  0.7725818

 Al 
  0.7564143  0.2474358  0.5142431

 Al 
  0.5065380  0.5051792  0.4972761

 Al 
  0.5002054  0.7348955  0.7647220

 Al 
  0.7619375  0.5087694  0.7338053

 Al 
  0.7604512  0.7582595  0.5008007

