32 
charge = 0 
 Al 
  0.0113509  0.0033724  0.9741399

 Al 
  0.9972340  0.2348052  0.2525283

 Al 
  0.2403990  0.9852012  0.2433234

 Al 
  0.2423209  0.2277103  0.0006089

 Al 
  0.4878966  0.0095837  0.9994938

 Al 
  0.5110861  0.2600168  0.2489877

 Al 
  0.7594451  0.9909683  0.2538810

 Al 
  0.7625278  0.2448357  0.9965682

 Al 
  0.0026162  0.4978937  0.9753861

 Al 
  0.0015012  0.7531162  0.2467341

 Al 
  0.2463566  0.4972774  0.2415029

 Al 
  0.2617643  0.7468875  0.9840367

 Al 
  0.9963059  0.0128942  0.5091703

 Al 
  0.0100156  0.2576184  0.7475113

 Al 
  0.2375835  0.9820058  0.7333758

 Al 
  0.2539354  0.2456487  0.5021620

 Al 
  0.0200733  0.5081011  0.4861319

 Al 
  0.9948951  0.7454210  0.7392778

 Al 
  0.2494629  0.4962675  0.7473343

 Al 
  0.2435572  0.7373868  0.5151230

 Al 
  0.5129746  0.5261051  0.0133558

 Al 
  0.4660970  0.7549775  0.2635538

 Al 
  0.7527338  0.5194384  0.2450745

 Al 
  0.7612742  0.7527796  0.9957403

 Al 
  0.4835652  0.9940968  0.5287387

 Al 
  0.4897245  0.2555554  0.7706166

 Al 
  0.7220794  0.9976858  0.7696587

 Al 
  0.7598869  0.2468801  0.5157566

 Al 
  0.5065900  0.5035159  0.4990013

 Al 
  0.5013403  0.7397567  0.7639931

 Al 
  0.7602161  0.5091208  0.7341790

 Al 
  0.7531904  0.7630773  0.5030555

