32 
charge = 0 
 Al 
  0.0127085  0.0047659  0.9739023

 Al 
  0.9974296  0.2352569  0.2522487

 Al 
  0.2404176  0.9850997  0.2431365

 Al 
  0.2420350  0.2274900  0.0003094

 Al 
  0.4878830  0.0086704  0.9972774

 Al 
  0.5107470  0.2595268  0.2486808

 Al 
  0.7595342  0.9903656  0.2531397

 Al 
  0.7632580  0.2450200  0.9977934

 Al 
  0.0023811  0.4991510  0.9769925

 Al 
  0.0014133  0.7540060  0.2453987

 Al 
  0.2461079  0.4960967  0.2416638

 Al 
  0.2617086  0.7466029  0.9838671

 Al 
  0.9953851  0.0125811  0.5096839

 Al 
  0.0109314  0.2583090  0.7471016

 Al 
  0.2378706  0.9814638  0.7329538

 Al 
  0.2532523  0.2460410  0.5026929

 Al 
  0.0201673  0.5088510  0.4860886

 Al 
  0.9964408  0.7458344  0.7395042

 Al 
  0.2482427  0.4956834  0.7477922

 Al 
  0.2420029  0.7361059  0.5153173

 Al 
  0.5126033  0.5262784  0.0128867

 Al 
  0.4669076  0.7547238  0.2642963

 Al 
  0.7524516  0.5202824  0.2456698

 Al 
  0.7614796  0.7519541  0.9960992

 Al 
  0.4831283  0.9939941  0.5284714

 Al 
  0.4906849  0.2545480  0.7713405

 Al 
  0.7231288  0.9970893  0.7686624

 Al 
  0.7605279  0.2467935  0.5160339

 Al 
  0.5065319  0.5031372  0.4994839

 Al 
  0.5016707  0.7410351  0.7635179

 Al 
  0.7596592  0.5090701  0.7344240

 Al 
  0.7513093  0.7641726  0.5035691

