32 
charge = 0 
 Al 
  0.0106468  0.0026570  0.9742835

 Al 
  0.9971511  0.2346159  0.2526533

 Al 
  0.2403841  0.9852829  0.2434347

 Al 
  0.2424682  0.2278736  0.0007661

 Al 
  0.4879127  0.0099958  0.0006052

 Al 
  0.5112408  0.2602396  0.2491436

 Al 
  0.7593721  0.9912727  0.2542263

 Al 
  0.7621640  0.2447626  0.9959742

 Al 
  0.0027350  0.4972959  0.9746461

 Al 
  0.0015569  0.7526707  0.2473776

 Al 
  0.2464779  0.4978405  0.2414076

 Al 
  0.2617408  0.7470249  0.9841419

 Al 
  0.9967539  0.0130117  0.5089080

 Al 
  0.0095565  0.2572657  0.7477031

 Al 
  0.2374573  0.9822991  0.7336246

 Al 
  0.2542733  0.2454631  0.5018873

 Al 
  0.0199792  0.5077026  0.4861591

 Al 
  0.9941389  0.7452317  0.7391874

 Al 
  0.2500730  0.4965559  0.7471202

 Al 
  0.2443419  0.7380315  0.5149943

 Al 
  0.5131442  0.5259702  0.0135686

 Al 
  0.4657591  0.7551037  0.2631899

 Al 
  0.7528897  0.5190102  0.2448010

 Al 
  0.7611740  0.7531892  0.9955708

 Al 
  0.4838114  0.9941525  0.5288191

 Al 
  0.4892691  0.2560616  0.7702391

 Al 
  0.7216202  0.9979840  0.7701104

 Al 
  0.7595466  0.2469296  0.5156094

 Al 
  0.5066086  0.5037015  0.4987761

 Al 
  0.5011843  0.7391416  0.7641862

 Al 
  0.7604735  0.5091283  0.7340812

 Al 
  0.7540951  0.7625316  0.5028018

