32 
charge = 0 
 Al 
  0.0151564  0.0073573  0.9736337

 Al 
  0.9979271  0.2364487  0.2515940

 Al 
  0.2404225  0.9851468  0.2429249

 Al 
  0.2415512  0.2275048  0.9997711

 Al 
  0.4879350  0.0064861  0.9929249

 Al 
  0.5099550  0.2583758  0.2480942

 Al 
  0.7594785  0.9891973  0.2514492

 Al 
  0.7647159  0.2455411  0.0003614

 Al 
  0.0019343  0.5018885  0.9806990

 Al 
  0.0013477  0.7557497  0.2425523

 Al 
  0.2455980  0.4935597  0.2418754

 Al 
  0.2611715  0.7460051  0.9837211

 Al 
  0.9934731  0.0116442  0.5106455

 Al 
  0.0127122  0.2596270  0.7461895

 Al 
  0.2385798  0.9805641  0.7324217

 Al 
  0.2518774  0.2468875  0.5036681

 Al 
  0.0199124  0.5101356  0.4860452

 Al 
  0.9996027  0.7467687  0.7401552

 Al 
  0.2458566  0.4944990  0.7488379

 Al 
  0.2390216  0.7336431  0.5154114

 Al 
  0.5117445  0.5262326  0.0117705

 Al 
  0.4690411  0.7542114  0.2658346

 Al 
  0.7519925  0.5219110  0.2470534

 Al 
  0.7619078  0.7503032  0.9968702

 Al 
  0.4824823  0.9938419  0.5274875

 Al 
  0.4928011  0.2525853  0.7726387

 Al 
  0.7257772  0.9959148  0.7663222

 Al 
  0.7616356  0.2466932  0.5165165

 Al 
  0.5063128  0.5023464  0.5005767

 Al 
  0.5023736  0.7437429  0.7622296

 Al 
  0.7583969  0.5088411  0.7351072

 Al 
  0.7473071  0.7663470  0.5046186

