32 
charge = 0 
 Al 
  0.0133570  0.0054416  0.9738095

 Al 
  0.9975397  0.2355193  0.2520964

 Al 
  0.2404225  0.9850799  0.2430635

 Al 
  0.2419002  0.2274343  0.0001671

 Al 
  0.4878867  0.0081692  0.9961759

 Al 
  0.5105638  0.2592607  0.2485298

 Al 
  0.7595490  0.9900673  0.2527437

 Al 
  0.7636231  0.2451314  0.9984221

 Al 
  0.0022672  0.4998094  0.9778588

 Al 
  0.0013824  0.7544478  0.2447069

 Al 
  0.2459804  0.4954829  0.2417318

 Al 
  0.2616269  0.7464569  0.9838053

 Al 
  0.9949136  0.0123855  0.5099327

 Al 
  0.0113856  0.2586468  0.7468838

 Al 
  0.2380315  0.9812150  0.7327818

 Al 
  0.2529095  0.2462452  0.5029491

 Al 
  0.0201624  0.5092013  0.4860712

 Al 
  0.9972266  0.7460559  0.7396416

 Al 
  0.2476363  0.4953876  0.7480372

 Al 
  0.2412368  0.7354747  0.5153792

 Al 
  0.5124029  0.5263168  0.0126306

 Al 
  0.4673779  0.7545963  0.2646763

 Al 
  0.7523241  0.5206982  0.2459915

 Al 
  0.7615848  0.7515395  0.9962861

 Al 
  0.4829390  0.9939483  0.5282820

 Al 
  0.4911898  0.2540481  0.7716846

 Al 
  0.7237216  0.9967910  0.7681192

 Al 
  0.7608287  0.2467588  0.5161638

 Al 
  0.5064898  0.5029442  0.4997413

 Al 
  0.5018415  0.7416972  0.7632382

 Al 
  0.7593597  0.5090293  0.7345701

 Al 
  0.7503366  0.7647208  0.5038290

