32 
charge = 0 
 Al 
  0.0145834  0.0067398  0.9736746

 Al 
  0.9977885  0.2361170  0.2517685

 Al 
  0.2404237  0.9851035  0.2429570

 Al 
  0.2416576  0.2274405  0.9998973

 Al 
  0.4879127  0.0070764  0.9939966

 Al 
  0.5101666  0.2586852  0.2482365

 Al 
  0.7595218  0.9894820  0.2518972

 Al 
  0.7643532  0.2453926  0.9997079

 Al 
  0.0020432  0.5011794  0.9797139

 Al 
  0.0013489  0.7553215  0.2432825

 Al 
  0.2457255  0.4942119  0.2418370

 Al 
  0.2613583  0.7461574  0.9837322

 Al 
  0.9939570  0.0119165  0.5104141

 Al 
  0.0122779  0.2593065  0.7464272

 Al 
  0.2383855  0.9807646  0.7325157

 Al 
  0.2522214  0.2466697  0.5034367

 Al 
  0.0200361  0.5098448  0.4860502

 Al 
  0.9988107  0.7465237  0.7399671

 Al 
  0.2464408  0.4947948  0.7485607

 Al 
  0.2397431  0.7342409  0.5154275

 Al 
  0.5119734  0.5262945  0.0120724

 Al 
  0.4684459  0.7543389  0.2654460

 Al 
  0.7520940  0.5215125  0.2466833

 Al 
  0.7618002  0.7507128  0.9966734

 Al 
  0.4826160  0.9938716  0.5277919

 Al 
  0.4922491  0.2530642  0.7723355

 Al 
  0.7250458  0.9962032  0.7669472

 Al 
  0.7613831  0.2467081  0.5164051

 Al 
  0.5063809  0.5025494  0.5002871

 Al 
  0.5021942  0.7430523  0.7625922

 Al 
  0.7587285  0.5089142  0.7349116

 Al 
  0.7483330  0.7658086  0.5043537

