32 
charge = 0 
 Al 
  0.0187293  0.0115316  0.9740817

 Al 
  0.9994876  0.2402406  0.2499307

 Al 
  0.2404633  0.9863695  0.2432553

 Al 
  0.2413878  0.2299317  0.9989320

 Al 
  0.4883756  0.0001188  0.9844253

 Al 
  0.5077645  0.2550146  0.2469865

 Al 
  0.7581914  0.9870662  0.2467873

 Al 
  0.7676971  0.2473652  0.0061420

 Al 
  0.0011200  0.5085256  0.9907393

 Al 
  0.0018947  0.7591629  0.2357804

 Al 
  0.2445337  0.4875860  0.2418148

 Al 
  0.2580776  0.7446525  0.9845082

 Al 
  0.9892926  0.0081976  0.5122828

 Al 
  0.0158433  0.2621219  0.7439694

 Al 
  0.2407368  0.9796433  0.7326766

 Al 
  0.2490285  0.2488367  0.5052299

 Al 
  0.0167281  0.5116145  0.4861950

 Al 
  0.0061210  0.7490619  0.7426167

 Al 
  0.2414126  0.4920660  0.7517635

 Al 
  0.2338634  0.7292906  0.5139696

 Al 
  0.5094327  0.5242377  0.0084996

 Al 
  0.4757945  0.7531038  0.2691674

 Al 
  0.7513737  0.5249926  0.2509665

 Al 
  0.7627370  0.7470398  0.9985261

 Al 
  0.4820801  0.9939879  0.5230917

 Al 
  0.4982476  0.2489728  0.7745062

 Al 
  0.7342372  0.9937392  0.7599574

 Al 
  0.7630068  0.2469754  0.5171415

 Al 
  0.5053005  0.5003700  0.5035914

 Al 
  0.5038760  0.7497909  0.7579823

 Al 
  0.7552213  0.5077929  0.7375588

 Al 
  0.7379412  0.7706005  0.5069242

