32 
charge = 0 
 Al 
  0.0175301  0.0100267  0.9737043

 Al 
  0.9987352  0.2384115  0.2506658

 Al 
  0.2404200  0.9856542  0.2429744

 Al 
  0.2412554  0.2284491  0.9992377

 Al 
  0.4881293  0.0031434  0.9878781

 Al 
  0.5087830  0.2566222  0.2474321

 Al 
  0.7589562  0.9878954  0.2489679

 Al 
  0.7664596  0.2464581  0.0036459

 Al 
  0.0014368  0.5055777  0.9860898

 Al 
  0.0015210  0.7577694  0.2387815

 Al 
  0.2449767  0.4902072  0.2419261

 Al 
  0.2597359  0.7452379  0.9839575

 Al 
  0.9910735  0.0099277  0.5116702

 Al 
  0.0146713  0.2611183  0.7449458

 Al 
  0.2396961  0.9798463  0.7323326

 Al 
  0.2502166  0.2479927  0.5046656

 Al 
  0.0186117  0.5112284  0.4860848

 Al 
  0.0034293  0.7480508  0.7413593

 Al 
  0.2431563  0.4930672  0.7503849

 Al 
  0.2357977  0.7309465  0.5149003

 Al 
  0.5104982  0.5254294  0.0100614

 Al 
  0.4725385  0.7535778  0.2677603

 Al 
  0.7515890  0.5237587  0.2491151

 Al 
  0.7624227  0.7483627  0.9978429

 Al 
  0.4820900  0.9938147  0.5253960

 Al 
  0.4957527  0.2503861  0.7738874

 Al 
  0.7301062  0.9945857  0.7628905

 Al 
  0.7626132  0.2467514  0.5169546

 Al 
  0.5058376  0.5012821  0.5021719

 Al 
  0.5032548  0.7472031  0.7600502

 Al 
  0.7566457  0.5083350  0.7363274

 Al 
  0.7420586  0.7688840  0.5059366

