32 
charge = 0 
 Al 
  0.0188431  0.0126256  0.9760705

 Al 
  0.0014380  0.2449916  0.2485954

 Al 
  0.2410116  0.9889770  0.2447441

 Al 
  0.2433642  0.2357198  0.9985582

 Al 
  0.4893681  0.9922801  0.9790505

 Al 
  0.5052770  0.2505470  0.2462898

 Al 
  0.7552448  0.9861900  0.2412863

 Al 
  0.7697453  0.2500507  0.0109685

 Al 
  0.0006732  0.5145921  0.0019417

 Al 
  0.0037028  0.7615650  0.2295221

 Al 
  0.2439174  0.4823066  0.2412764

 Al 
  0.2529999  0.7435065  0.9871442

 Al 
  0.9861257  0.0031224  0.5126590

 Al 
  0.0165759  0.2635674  0.7421749

 Al 
  0.2436055  0.9806557  0.7345738

 Al 
  0.2470385  0.2504183  0.5056198

 Al 
  0.0092458  0.5107965  0.4868162

 Al 
  0.0104005  0.7509826  0.7464742

 Al 
  0.2393409  0.4906354  0.7552918

 Al 
  0.2320714  0.7276001  0.5099426

 Al 
  0.5068808  0.5197366  0.0043129

 Al 
  0.4843015  0.7520927  0.2714098

 Al 
  0.7510396  0.5267425  0.2558846

 Al 
  0.7626590  0.7451054  0.9993713

 Al 
  0.4828362  0.9955101  0.5156614

 Al 
  0.5043797  0.2471004  0.7744010

 Al 
  0.7457255  0.9929211  0.7533068

 Al 
  0.7623942  0.2482204  0.5168073

 Al 
  0.5034082  0.4978937  0.5073821

 Al 
  0.5047102  0.7544515  0.7524467

 Al 
  0.7521620  0.5061717  0.7413247

 Al 
  0.7295122  0.7729258  0.5086914

