32 
charge = 0 
 Al 
  0.0165908  0.0114338  0.9785233

 Al 
  0.0028105  0.2483380  0.2482761

 Al 
  0.2420561  0.9916601  0.2464977

 Al 
  0.2463343  0.2414311  0.9984766

 Al 
  0.4906873  0.9865291  0.9781880

 Al 
  0.5035629  0.2467316  0.2461103

 Al 
  0.7522078  0.9868348  0.2372543

 Al 
  0.7701809  0.2524999  0.0130724

 Al 
  0.0005136  0.5172986  0.0093671

 Al 
  0.0058066  0.7626355  0.2265853

 Al 
  0.2442070  0.4799168  0.2410648

 Al 
  0.2489963  0.7429942  0.9902616

 Al 
  0.9853448  0.9987983  0.5115502

 Al 
  0.0148545  0.2635105  0.7417232

 Al 
  0.2459222  0.9829093  0.7364747

 Al 
  0.2464668  0.2510581  0.5050356

 Al 
  0.0014207  0.5090008  0.4878088

 Al 
  0.0112655  0.7515556  0.7497859

 Al 
  0.2399906  0.4908297  0.7577806

 Al 
  0.2332397  0.7284181  0.5055158

 Al 
  0.5051062  0.5152084  0.0010495

 Al 
  0.4904609  0.7513254  0.2714321

 Al 
  0.7507339  0.5266546  0.2597792

 Al 
  0.7613583  0.7449606  0.9989233

 Al 
  0.4838090  0.9980273  0.5087533

 Al 
  0.5089414  0.2469890  0.7727749

 Al 
  0.7548822  0.9937317  0.7496337

 Al 
  0.7604376  0.2497673  0.5156366

 Al 
  0.5013440  0.4957205  0.5104351

 Al 
  0.5044230  0.7559304  0.7482328

 Al 
  0.7505247  0.5048092  0.7448480

 Al 
  0.7255185  0.7724915  0.5091493

