32 
charge = 0 
 Al 
  0.0169558  0.0116504  0.9781768

 Al 
  0.0026521  0.2479531  0.2482773

 Al 
  0.2418940  0.9912975  0.2462601

 Al 
  0.2459123  0.2406960  0.9984840

 Al 
  0.4904906  0.9872123  0.9781422

 Al 
  0.5037622  0.2472180  0.2461190

 Al 
  0.7526100  0.9866913  0.2377370

 Al 
  0.7701834  0.2521781  0.0128905

 Al 
  0.0005334  0.5170784  0.0085268

 Al 
  0.0055232  0.7625266  0.2268365

 Al 
  0.2441241  0.4801210  0.2410636

 Al 
  0.2494678  0.7430375  0.9898322

 Al 
  0.9853510  0.9993429  0.5117655

 Al 
  0.0151700  0.2635761  0.7417281

 Al 
  0.2456364  0.9825627  0.7362346

 Al 
  0.2465002  0.2510037  0.5051421

 Al 
  0.0024541  0.5092520  0.4876528

 Al 
  0.0112643  0.7515358  0.7493750

 Al 
  0.2398124  0.4907393  0.7574947

 Al 
  0.2330008  0.7282338  0.5061111

 Al 
  0.5053166  0.5158049  0.0014467

 Al 
  0.4897369  0.7514269  0.2715249

 Al 
  0.7507821  0.5267363  0.2593003

 Al 
  0.7615898  0.7449198  0.9990347

 Al 
  0.4836778  0.9976474  0.5096480

 Al 
  0.5083857  0.2469581  0.7730447

 Al 
  0.7537647  0.9935610  0.7499988

 Al 
  0.7607458  0.2495545  0.5158297

 Al 
  0.5016311  0.4960014  0.5100564

 Al 
  0.5045097  0.7558487  0.7487426

 Al 
  0.7506868  0.5049775  0.7443827

 Al 
  0.7258750  0.7726561  0.5091406

