32 
charge = 0 
 Al 
  0.0144980  0.0101493  0.9804354

 Al 
  0.0035370  0.2501015  0.2484295

 Al 
  0.2430003  0.9935832  0.2477464

 Al 
  0.2486003  0.2451178  0.9984258

 Al 
  0.4918271  0.9832830  0.9790147

 Al 
  0.5026360  0.2442775  0.2461079

 Al 
  0.7501361  0.9877976  0.2349475

 Al 
  0.7699421  0.2541891  0.0136627

 Al 
  0.0003935  0.5178630  0.0131800

 Al 
  0.0072459  0.7631367  0.2258651

 Al 
  0.2448344  0.4792943  0.2412356

 Al 
  0.2468269  0.7428877  0.9925536

 Al 
  0.9857148  0.9960596  0.5101158

 Al 
  0.0129041  0.2629647  0.7419076

 Al 
  0.2473256  0.9849005  0.7376702

 Al 
  0.2464210  0.2512400  0.5043983

 Al 
  0.9961264  0.5077001  0.4887543

 Al 
  0.0108831  0.7514418  0.7517883

 Al 
  0.2412319  0.4915425  0.7590738

 Al 
  0.2347235  0.7296285  0.5023885

 Al 
  0.5040976  0.5121232  0.9991374

 Al 
  0.4938629  0.7507735  0.2705398

 Al 
  0.7504208  0.5259443  0.2621194

 Al 
  0.7599030  0.7453888  0.9981461

 Al 
  0.4845119  0.0001794  0.5041731

 Al 
  0.5116752  0.2472551  0.7711673

 Al 
  0.7602928  0.9948555  0.7482105

 Al 
  0.7586506  0.2508836  0.5144560

 Al 
  0.4997797  0.4942688  0.5123001

 Al 
  0.5037696  0.7559502  0.7457663

 Al 
  0.7498812  0.5039825  0.7472836

 Al 
  0.7243503  0.7712366  0.5089946

