32 
charge = 0 
 Al 
  0.0153829  0.0107000  0.9796347

 Al 
  0.0032597  0.2494282  0.2483355

 Al 
  0.2425969  0.9927937  0.2472365

 Al 
  0.2476647  0.2436439  0.9984518

 Al 
  0.4913395  0.9845490  0.9785679

 Al 
  0.5029924  0.2452626  0.2461029

 Al 
  0.7509752  0.9873645  0.2358485

 Al 
  0.7700844  0.2534961  0.0134894

 Al 
  0.0004492  0.5177466  0.0117333

 Al 
  0.0066692  0.7629424  0.2260445

 Al 
  0.2445386  0.4794627  0.2411316

 Al 
  0.2476523  0.7429075  0.9916106

 Al 
  0.9854871  0.9971573  0.5107643

 Al 
  0.0137543  0.2632258  0.7417912

 Al 
  0.2467700  0.9840540  0.7371937

 Al 
  0.2464197  0.2511831  0.5046718

 Al 
  0.9982637  0.5082261  0.4883409

 Al 
  0.0111096  0.7515296  0.7510000

 Al 
  0.2406688  0.4912071  0.7585837

 Al 
  0.2340775  0.7290889  0.5036669

 Al 
  0.5044936  0.5133768  0.9998874

 Al 
  0.4925462  0.7510037  0.2709841

 Al 
  0.7505619  0.5262883  0.2611962

 Al 
  0.7605465  0.7451747  0.9985001

 Al 
  0.4842198  0.9992686  0.5060232

 Al 
  0.5105911  0.2471313  0.7718603

 Al 
  0.7581692  0.9943530  0.7486993

 Al 
  0.7594129  0.2504282  0.5149733

 Al 
  0.5004319  0.4948579  0.5115625

 Al 
  0.5040765  0.7560158  0.7467353

 Al 
  0.7501040  0.5043092  0.7462873

 Al 
  0.7246943  0.7718232  0.5090961

