32 
charge = 0 
 Al 
  0.0158024  0.0109574  0.9792523

 Al 
  0.0031149  0.2490755  0.2483045

 Al 
  0.2424076  0.9924088  0.2469865

 Al 
  0.2472105  0.2429051  0.9984617

 Al 
  0.4911118  0.9851975  0.9784008

 Al 
  0.5031781  0.2457539  0.2461029

 Al 
  0.7513910  0.9871714  0.2363101

 Al 
  0.7701314  0.2531583  0.0133706

 Al 
  0.0004727  0.5176328  0.0109710

 Al 
  0.0063796  0.7628422  0.2261893

 Al 
  0.2444136  0.4795876  0.2410970

 Al 
  0.2480867  0.7429298  0.9911514

 Al 
  0.9854129  0.9977043  0.5110502

 Al 
  0.0141453  0.2633360  0.7417541

 Al 
  0.2464890  0.9836555  0.7369549

 Al 
  0.2464272  0.2511472  0.5047993

 Al 
  0.9993243  0.5084872  0.4881528

 Al 
  0.0111876  0.7515531  0.7505977

 Al 
  0.2404200  0.4910636  0.7583251

 Al 
  0.2337793  0.7288463  0.5042919

 Al 
  0.5046941  0.5139944  0.0002698

 Al 
  0.4918655  0.7511138  0.2711623

 Al 
  0.7506237  0.5264306  0.2607284

 Al 
  0.7608373  0.7450881  0.9986548

 Al 
  0.4840800  0.9988379  0.5069403

 Al 
  0.5100453  0.2470769  0.7721821

 Al 
  0.7570863  0.9941278  0.7489840

 Al 
  0.7597718  0.2502054  0.5152084

 Al 
  0.5007450  0.4951475  0.5111888

 Al 
  0.5042065  0.7560133  0.7472291

 Al 
  0.7502327  0.5044750  0.7457997

 Al 
  0.7249282  0.7720744  0.5091270

