32 
charge = 0 
 Al 
  0.0115873  0.0082904  0.9831196

 Al 
  0.0042387  0.2518576  0.2489778

 Al 
  0.2444000  0.9960831  0.2493218

 Al 
  0.2515519  0.2494332  0.9982625

 Al 
  0.4935436  0.9797758  0.9811903

 Al 
  0.5016905  0.2413668  0.2461499

 Al 
  0.7475954  0.9894238  0.2324637

 Al 
  0.7691439  0.2564069  0.0137332

 Al 
  0.0001386  0.5172974  0.0168717

 Al 
  0.0088696  0.7637295  0.2262537

 Al 
  0.2460955  0.4794206  0.2418890

 Al 
  0.2447948  0.7430424  0.9955336

 Al 
  0.9870266  0.9927838  0.5075578

 Al 
  0.0099228  0.2618967  0.7425672

 Al 
  0.2489345  0.9877877  0.7390686

 Al 
  0.2465088  0.2513304  0.5034998

 Al 
  0.9897517  0.5061420  0.4902851

 Al 
  0.0096988  0.7508886  0.7540048

 Al 
  0.2433444  0.4928766  0.7603015

 Al 
  0.2369586  0.7316309  0.4983936

 Al 
  0.5029751  0.5082644  0.9970633

 Al 
  0.4974222  0.7499901  0.2685040

 Al 
  0.7498366  0.5244344  0.2647121

 Al 
  0.7574996  0.7463455  0.9967947

 Al 
  0.4855094  0.0032177  0.4985558

 Al 
  0.5148136  0.2476660  0.7687429

 Al 
  0.7662121  0.9967229  0.7473714

 Al 
  0.7560220  0.2522524  0.5125402

 Al 
  0.4976338  0.4924546  0.5143978

 Al 
  0.5024937  0.7552559  0.7430362

 Al 
  0.7494815  0.5030456  0.7504381

 Al 
  0.7243057  0.7688864  0.5083993

