32 
charge = 0 
 Al 
  0.0110811  0.0079625  0.9836060

 Al 
  0.0043339  0.2521100  0.2491065

 Al 
  0.2446562  0.9965113  0.2495842

 Al 
  0.2520531  0.2501238  0.9982179

 Al 
  0.4938642  0.9792399  0.9816593

 Al 
  0.5015544  0.2409002  0.2461549

 Al 
  0.7471784  0.9897369  0.2320900

 Al 
  0.7689582  0.2567942  0.0136850

 Al 
  0.0000804  0.5170697  0.0173890

 Al 
  0.0091097  0.7638335  0.2264566

 Al 
  0.2463591  0.4795332  0.2420536

 Al 
  0.2445324  0.7431018  0.9960410

 Al 
  0.9873323  0.9922454  0.5070430

 Al 
  0.0093807  0.2616851  0.7427182

 Al 
  0.2491894  0.9883100  0.7392963

 Al 
  0.2465274  0.2513378  0.5033464

 Al 
  0.9887221  0.5058933  0.4905846

 Al 
  0.0094414  0.7507586  0.7543451

 Al 
  0.2437441  0.4931377  0.7604661

 Al 
  0.2373608  0.7320133  0.4977142

 Al 
  0.5027981  0.5076147  0.9967502

 Al 
  0.4979506  0.7498453  0.2680647

 Al 
  0.7497129  0.5241151  0.2651069

 Al 
  0.7570355  0.7465447  0.9965348

 Al 
  0.4856987  0.0037535  0.4976264

 Al 
  0.5153124  0.2477278  0.7682974

 Al 
  0.7671143  0.9970769  0.7473170

 Al 
  0.7555430  0.2524726  0.5121677

 Al 
  0.4972526  0.4921501  0.5147220

 Al 
  0.5022326  0.7550814  0.7426118

 Al 
  0.7494530  0.5028971  0.7509826

 Al 
  0.7244394  0.7684236  0.5082620

