32 
charge = 0 
 Al 
  0.0120897  0.0086159  0.9826444

 Al 
  0.0041359  0.2515927  0.2488590

 Al 
  0.2441488  0.9956562  0.2490582

 Al 
  0.2510507  0.2487327  0.9983021

 Al 
  0.4932330  0.9803277  0.9807485

 Al 
  0.5018328  0.2418408  0.2461425

 Al 
  0.7480162  0.9891218  0.2328511

 Al 
  0.7693159  0.2560232  0.0137654

 Al 
  0.0001931  0.5174880  0.0163272

 Al 
  0.0086184  0.7636280  0.2260903

 Al 
  0.2458467  0.4793339  0.2417417

 Al 
  0.2450807  0.7429929  0.9950262

 Al 
  0.9867445  0.9933246  0.5080479

 Al 
  0.0104549  0.2620996  0.7424261

 Al 
  0.2486746  0.9872741  0.7388384

 Al 
  0.2464903  0.2513205  0.5036533

 Al 
  0.9907962  0.5063945  0.4899980

 Al 
  0.0099426  0.7510086  0.7536558

 Al 
  0.2429558  0.4926254  0.7601245

 Al 
  0.2365625  0.7312621  0.4990706

 Al 
  0.5031545  0.5089129  0.9973863

 Al 
  0.4968739  0.7501312  0.2689149

 Al 
  0.7499530  0.5247352  0.2643037

 Al 
  0.7579464  0.7461561  0.9970459

 Al 
  0.4853287  0.0026867  0.4994914

 Al 
  0.5143050  0.2476004  0.7691785

 Al 
  0.7652827  0.9963789  0.7474481

 Al 
  0.7564910  0.2520284  0.5128979

 Al 
  0.4980100  0.4927603  0.5140661

 Al 
  0.5027424  0.7554168  0.7434694

 Al 
  0.7495211  0.5031966  0.7498985

 Al 
  0.7242129  0.7693320  0.5085268

