32 
charge = 0 
 Al 
  0.0140364  0.0098584  0.9808537

 Al 
  0.0036681  0.2504220  0.2484939

 Al 
  0.2432144  0.9939879  0.2480063

 Al 
  0.2490793  0.2458517  0.9984097

 Al 
  0.4920870  0.9826667  0.9792931

 Al 
  0.5024640  0.2437850  0.2461141

 Al 
  0.7497129  0.9880352  0.2345082

 Al 
  0.7698468  0.2545443  0.0137209

 Al 
  0.0003614  0.5178642  0.0138644

 Al 
  0.0075306  0.7632333  0.2258329

 Al 
  0.2450064  0.4792498  0.2413074

 Al 
  0.2464395  0.7428902  0.9930375

 Al 
  0.9858695  0.9955114  0.5097532

 Al 
  0.0124486  0.2628137  0.7419855

 Al 
  0.2476016  0.9853473  0.7379065

 Al 
  0.2464284  0.2512636  0.5042547

 Al 
  0.9950535  0.5074365  0.4889783

 Al 
  0.0107346  0.7513786  0.7521756

 Al 
  0.2415425  0.4917318  0.7593052

 Al 
  0.2350676  0.7299243  0.5017375

 Al 
  0.5039033  0.5114883  0.9987723

 Al 
  0.4944990  0.7506522  0.2702737

 Al 
  0.7503403  0.5257425  0.2625724

 Al 
  0.7595503  0.7455163  0.9979494

 Al 
  0.4846641  0.0006559  0.5032399

 Al 
  0.5122110  0.2473232  0.7707972

 Al 
  0.7613299  0.9951314  0.7480063

 Al 
  0.7582459  0.2511126  0.5141750

 Al 
  0.4994419  0.4939706  0.5126640

 Al 
  0.5035939  0.7558834  0.7452923

 Al 
  0.7497871  0.5038216  0.7477934

 Al 
  0.7242414  0.7709037  0.5089253

