32 
charge = 0 
 Al 
  0.0125872  0.0089364  0.9821803

 Al 
  0.0040283  0.2513168  0.2487513

 Al 
  0.2439050  0.9952329  0.2487946

 Al 
  0.2505520  0.2480236  0.9983355

 Al 
  0.4929310  0.9808933  0.9803364

 Al 
  0.5019826  0.2423209  0.2461351

 Al 
  0.7484382  0.9888322  0.2332496

 Al 
  0.7694718  0.2556458  0.0137803

 Al 
  0.0002413  0.5176402  0.0157529

 Al 
  0.0083573  0.7635278  0.2259678

 Al 
  0.2456128  0.4792733  0.2416106

 Al 
  0.2453888  0.7429521  0.9945225

 Al 
  0.9864883  0.9938691  0.5085120

 Al 
  0.0109747  0.2622939  0.7422986

 Al 
  0.2484110  0.9867729  0.7386070

 Al 
  0.2464717  0.2513106  0.5038055

 Al 
  0.9918507  0.5066519  0.4897245

 Al 
  0.0101691  0.7511175  0.7532969

 Al 
  0.2425808  0.4923840  0.7599364

 Al 
  0.2361740  0.7309056  0.4997451

 Al 
  0.5033377  0.5095614  0.9977204

 Al 
  0.4963071  0.7502673  0.2692985

 Al 
  0.7500606  0.5250161  0.2638855

 Al 
  0.7583746  0.7459779  0.9972873

 Al 
  0.4851530  0.0021633  0.5004282

 Al 
  0.5137902  0.2475323  0.7696018

 Al 
  0.7643273  0.9960472  0.7475496

 Al 
  0.7569489  0.2518019  0.5132394

 Al 
  0.4983788  0.4930647  0.5137246

 Al 
  0.5029763  0.7555604  0.7439124

 Al 
  0.7495706  0.5033488  0.7493639

 Al 
  0.7241585  0.7697589  0.5086431

