32 
charge = 0 
 Al 
  0.0053054  0.0041582  0.9900537

 Al 
  0.0048624  0.2541495  0.2513056

 Al 
  0.2479197  0.0015259  0.2522660

 Al 
  0.2577397  0.2570393  0.9972130

 Al 
  0.4980484  0.9742463  0.9887085

 Al 
  0.5004975  0.2364202  0.2458888

 Al 
  0.7429125  0.9940127  0.2288897

 Al 
  0.7656985  0.2615601  0.0121454

 Al 
  0.9989988  0.5118274  0.0213628

 Al 
  0.0106752  0.7650228  0.2316903

 Al 
  0.2505111  0.4827657  0.2452440

 Al 
  0.2434038  0.7445745  0.0018774

 Al 
  0.9923915  0.9863856  0.4993849

 Al 
  0.0027486  0.2588288  0.7451945

 Al 
  0.2519096  0.9949978  0.7419311

 Al 
  0.2464927  0.2514814  0.5018254

 Al 
  0.9783229  0.5035469  0.4951079

 Al 
  0.0056012  0.7486300  0.7574118

 Al 
  0.2488157  0.4967279  0.7613918

 Al 
  0.2422900  0.7371677  0.4898978

 Al 
  0.5009789  0.5001745  0.9941179

 Al 
  0.5025407  0.7478454  0.2610205

 Al 
  0.7475707  0.5189570  0.2684063

 Al 
  0.7507104  0.7494035  0.9931773

 Al 
  0.4886045  0.0099302  0.4874808

 Al 
  0.5203146  0.2478565  0.7625872

 Al 
  0.7753626  0.0018056  0.7481177

 Al 
  0.7494777  0.2545109  0.5066655

 Al 
  0.4924422  0.4887184  0.5176105

 Al 
  0.4981820  0.7523006  0.7384511

 Al 
  0.7499220  0.5013935  0.7574712

 Al 
  0.7287473  0.7620353  0.5061012

