32 
charge = 0 
 Al 
  0.0090614  0.0066383  0.9856406

 Al 
  0.0046421  0.2529974  0.2497178

 Al 
  0.2457230  0.9982278  0.2506002

 Al 
  0.2540406  0.2527424  0.9979778

 Al 
  0.4952181  0.9772573  0.9837718

 Al 
  0.5010779  0.2391379  0.2461512

 Al 
  0.7455757  0.9910747  0.2307411

 Al 
  0.7680709  0.2583820  0.0133459

 Al 
  0.9997958  0.5157950  0.0191637

 Al 
  0.0099339  0.7642555  0.2276533

 Al 
  0.2475571  0.4802374  0.2428716

 Al 
  0.2437330  0.7434434  0.9980657

 Al 
  0.9887679  0.9901490  0.5047609

 Al 
  0.0071568  0.2607767  0.7434224

 Al 
  0.2501683  0.9904856  0.7401948

 Al 
  0.2465781  0.2513675  0.5027573

 Al 
  0.9847978  0.5049614  0.4919063

 Al 
  0.0082805  0.7501547  0.7555901

 Al 
  0.2454148  0.4942577  0.7609957

 Al 
  0.2390043  0.7336394  0.4950052

 Al 
  0.5021274  0.5050332  0.9956240

 Al 
  0.4998503  0.7492302  0.2660499

 Al 
  0.7491325  0.5226523  0.2665338

 Al 
  0.7550443  0.7474296  0.9954334

 Al 
  0.4865304  0.0059168  0.4939879

 Al 
  0.5172108  0.2479197  0.7664385

 Al 
  0.7704198  0.9985818  0.7473182

 Al 
  0.7535530  0.2532944  0.5105341

 Al 
  0.4956784  0.4909435  0.5159113

 Al 
  0.5010594  0.7542597  0.7410240

 Al 
  0.7494443  0.5023353  0.7531805

 Al 
  0.7253490  0.7664187  0.5076320

