32 
charge = 0 
 Al 
  0.0066469  0.0050431  0.9883545

 Al 
  0.0048463  0.2538154  0.2506646

 Al 
  0.2471004  0.0003230  0.2517214

 Al 
  0.2564130  0.2555987  0.9975397

 Al 
  0.4969940  0.9752104  0.9867915

 Al 
  0.5006559  0.2372840  0.2460423

 Al 
  0.7438035  0.9928865  0.2294391

 Al 
  0.7666712  0.2603869  0.0126566

 Al 
  0.9993305  0.5134956  0.0207366

 Al 
  0.0105601  0.7647654  0.2299515

 Al 
  0.2493317  0.4816556  0.2442503

 Al 
  0.2433308  0.7440882  0.0005025

 Al 
  0.9909485  0.9877135  0.5014950

 Al 
  0.0043686  0.2595639  0.7444854

 Al 
  0.2512871  0.9933023  0.7412876

 Al 
  0.2465608  0.2514257  0.5021249

 Al 
  0.9805022  0.5039961  0.4938270

 Al 
  0.0066370  0.7492414  0.7568400

 Al 
  0.2475583  0.4957774  0.7613460

 Al 
  0.2410710  0.7358212  0.4917380

 Al 
  0.5013774  0.5019281  0.9945535

 Al 
  0.5017078  0.7483850  0.2630340

 Al 
  0.7482167  0.5204507  0.2678803

 Al 
  0.7523551  0.7486548  0.9940065

 Al 
  0.4877605  0.0085132  0.4897654

 Al 
  0.5192775  0.2479654  0.7640290

 Al 
  0.7737822  0.0005817  0.7477216

 Al 
  0.7509950  0.2541347  0.5082001

 Al 
  0.4936538  0.4895117  0.5170957

 Al 
  0.4993342  0.7530605  0.7393161

 Al 
  0.7496696  0.5017153  0.7558995

 Al 
  0.7272548  0.7637060  0.5067039

