32 
charge = 0 
 Al 
  0.0075900  0.0056668  0.9872482

 Al 
  0.0047906  0.2535271  0.2502661

 Al 
  0.2465484  0.9994963  0.2512994

 Al 
  0.2554849  0.2545208  0.9977315

 Al 
  0.4962811  0.9759665  0.9855477

 Al 
  0.5008019  0.2379697  0.2461042

 Al 
  0.7444743  0.9921489  0.2299045

 Al 
  0.7672665  0.2595874  0.0129610

 Al 
  0.9995310  0.5144980  0.0201908

 Al 
  0.0103708  0.7645698  0.2289342

 Al 
  0.2485904  0.4810207  0.2436550

 Al 
  0.2434112  0.7438035  0.9995471

 Al 
  0.9900351  0.9886577  0.5028464

 Al 
  0.0054762  0.2600540  0.7440399

 Al 
  0.2508527  0.9921712  0.7408544

 Al 
  0.2465806  0.2513984  0.5023600

 Al 
  0.9821259  0.5043513  0.4930251

 Al 
  0.0073115  0.7496238  0.7563833

 Al 
  0.2467019  0.4951574  0.7612482

 Al 
  0.2402480  0.7349352  0.4930201

 Al 
  0.5016658  0.5031471  0.9949322

 Al 
  0.5010358  0.7487327  0.2642976

 Al 
  0.7486077  0.5213777  0.2674076

 Al 
  0.7534454  0.7481560  0.9945758

 Al 
  0.4872420  0.0075021  0.4914002

 Al 
  0.5184991  0.2479778  0.7649968

 Al 
  0.7725447  0.9997711  0.7475150

 Al 
  0.7520185  0.2538290  0.5091691

 Al 
  0.4944669  0.4900698  0.5166675

 Al 
  0.5000569  0.7535555  0.7399597

 Al 
  0.7495483  0.5019516  0.7548228

 Al 
  0.7263984  0.7648074  0.5070888

