32 
charge = 0 
 Al 
  0.0057423  0.0044453  0.9894820

 Al 
  0.0048661  0.2540505  0.2510866

 Al 
  0.2476486  0.0011299  0.2520977

 Al 
  0.2573066  0.2565838  0.9973256

 Al 
  0.4977006  0.9745446  0.9880649

 Al 
  0.5005433  0.2366851  0.2459482

 Al 
  0.7431934  0.9936352  0.2290530

 Al 
  0.7660326  0.2611727  0.0123212

 Al 
  0.9991127  0.5124029  0.0211796

 Al 
  0.0106604  0.7649423  0.2310851

 Al 
  0.2501114  0.4823759  0.2449000

 Al 
  0.2433543  0.7444050  0.0014281

 Al 
  0.9919026  0.9868150  0.5000978

 Al 
  0.0032820  0.2590726  0.7449532

 Al 
  0.2517054  0.9944334  0.7417170

 Al 
  0.2465212  0.2514603  0.5019182

 Al 
  0.9790134  0.5036855  0.4946711

 Al 
  0.0059477  0.7488379  0.7572373

 Al 
  0.2484023  0.4964086  0.7613905

 Al 
  0.2418865  0.7367172  0.4904992

 Al 
  0.5011076  0.5007475  0.9942453

 Al 
  0.5022858  0.7480273  0.2617061

 Al 
  0.7477934  0.5194693  0.2682553

 Al 
  0.7512586  0.7491560  0.9934496

 Al 
  0.4883137  0.0094735  0.4882184

 Al 
  0.5199866  0.2479048  0.7630649

 Al 
  0.7748725  0.0013972  0.7479753

 Al 
  0.7499802  0.2543971  0.5071878

 Al 
  0.4928444  0.4889758  0.5174558

 Al 
  0.4985743  0.7525543  0.7387258

 Al 
  0.7498292  0.5014962  0.7569551

 Al 
  0.7282239  0.7625934  0.5063041

