32 
charge = 0 
 Al 
  0.0048809  0.0038798  0.9906304

 Al 
  0.0048500  0.2542362  0.2515284

 Al 
  0.2481882  0.0019157  0.2524219

 Al 
  0.2581630  0.2574687  0.9970942

 Al 
  0.4983912  0.9739728  0.9893545

 Al 
  0.5004604  0.2361801  0.2458183

 Al 
  0.7426489  0.9943914  0.2287473

 Al 
  0.7653532  0.2619412  0.0119635

 Al 
  0.9988825  0.5112346  0.0215237

 Al 
  0.0106666  0.7650945  0.2323214

 Al 
  0.2509195  0.4831741  0.2455980

 Al 
  0.2434780  0.7447503  0.0023192

 Al 
  0.9928877  0.9859685  0.4986671

 Al 
  0.0022239  0.2585862  0.7454396

 Al 
  0.2521088  0.9955584  0.7421440

 Al 
  0.2464593  0.2515049  0.5017413

 Al 
  0.9776682  0.5034206  0.4955559

 Al 
  0.0052535  0.7484184  0.7575726

 Al 
  0.2492240  0.4970484  0.7613794

 Al 
  0.2426922  0.7376194  0.4893099

 Al 
  0.5008552  0.4996139  0.9940090

 Al 
  0.5027746  0.7476610  0.2603225

 Al 
  0.7473392  0.5184335  0.2685300

 Al 
  0.7501658  0.7496498  0.9929112

 Al 
  0.4889053  0.0103695  0.4867680

 Al 
  0.5206227  0.2477947  0.7621108

 Al 
  0.7758156  0.0022140  0.7482674

 Al 
  0.7489815  0.2546124  0.5061346

 Al 
  0.4920425  0.4884684  0.5177479

 Al 
  0.4977823  0.7520457  0.7381899

 Al 
  0.7500248  0.5012945  0.7579798

 Al 
  0.7292931  0.7614784  0.5058957

