32 
charge = 0 
 Al 
  0.0012846  0.0015903  0.9966549

 Al 
  0.0042374  0.2545233  0.2539639

 Al 
  0.2507326  0.0055307  0.2531187

 Al 
  0.2618051  0.2603794  0.9957366

 Al 
  0.5013898  0.9726598  0.9956537

 Al 
  0.5004393  0.2353039  0.2444730

 Al 
  0.7410450  0.9981944  0.2284924

 Al 
  0.7613769  0.2653458  0.0099908

 Al 
  0.9976375  0.5046656  0.0220113

 Al 
  0.0091914  0.7651799  0.2396763

 Al 
  0.2552634  0.4881899  0.2496819

 Al 
  0.2453913  0.7467885  0.0062447

 Al 
  0.9980162  0.9825924  0.4913272

 Al 
  0.9975484  0.2563759  0.7480966

 Al 
  0.2539726  0.0010618  0.7443258

 Al 
  0.2458034  0.2519009  0.5013613

 Al 
  0.9731127  0.5027363  0.5005718

 Al 
  0.0018477  0.7461190  0.7584488

 Al 
  0.2528006  0.5003366  0.7605985

 Al 
  0.2466598  0.7421477  0.4842149

 Al 
  0.4998936  0.4947156  0.9939174

 Al 
  0.5040196  0.7456562  0.2528315

 Al 
  0.7446389  0.5124524  0.2683134

 Al 
  0.7450077  0.7518143  0.9906032

 Al 
  0.4925251  0.0136219  0.4811358

 Al 
  0.5226523  0.2463962  0.7575219

 Al 
  0.7783501  0.0061321  0.7500161

 Al 
  0.7443307  0.2549626  0.5002859

 Al 
  0.4883347  0.4864066  0.5181142

 Al 
  0.4935275  0.7496065  0.7362507

 Al 
  0.7513725  0.5005903  0.7625427

 Al 
  0.7357915  0.7560207  0.5038228

