32 
charge = 0 
 Al 
  0.0019120  0.0019739  0.9954086

 Al 
  0.0044292  0.2545406  0.2534478

 Al 
  0.2502450  0.0048426  0.2531149

 Al 
  0.2611641  0.2599970  0.9960274

 Al 
  0.5008675  0.9727031  0.9944409

 Al 
  0.5003985  0.2352384  0.2448468

 Al 
  0.7412059  0.9974321  0.2283662

 Al 
  0.7622506  0.2647381  0.0103968

 Al 
  0.9978875  0.5060492  0.0220608

 Al 
  0.0096938  0.7652789  0.2380773

 Al 
  0.2543649  0.4870625  0.2487959

 Al 
  0.2448555  0.7463480  0.0055257

 Al 
  0.9969816  0.9831444  0.4927974

 Al 
  0.9983924  0.2567769  0.7475335

 Al 
  0.2536112  0.9999728  0.7438728

 Al 
  0.2459816  0.2517945  0.5013712

 Al 
  0.9737377  0.5027969  0.4994914

 Al 
  0.0025110  0.7466041  0.7583684

 Al 
  0.2521707  0.4996708  0.7608435

 Al 
  0.2458591  0.7412381  0.4851195

 Al 
  0.5000470  0.4955893  0.9937911

 Al 
  0.5039119  0.7460831  0.2543884

 Al 
  0.7452366  0.5137629  0.2685709

 Al 
  0.7459829  0.7514368  0.9910091

 Al 
  0.4917021  0.0131541  0.4820393

 Al 
  0.5224024  0.2467947  0.7584191

 Al 
  0.7781286  0.0053822  0.7496461

 Al 
  0.7452119  0.2549886  0.5015371

 Al 
  0.4890228  0.4867531  0.5181922

 Al 
  0.4944013  0.7500693  0.7365477

 Al 
  0.7510668  0.5006893  0.7617123

 Al 
  0.7343659  0.7570912  0.5042387

