32 
charge = 0 
 Al 
  0.0044676  0.0036100  0.9912108

 Al 
  0.0048290  0.2543117  0.2517549

 Al 
  0.2484555  0.0023006  0.2525642

 Al 
  0.2585751  0.2578746  0.9969729

 Al 
  0.4987278  0.9737228  0.9900005

 Al 
  0.5004294  0.2359648  0.2457378

 Al 
  0.7424026  0.9947701  0.2286248

 Al 
  0.7649993  0.2623175  0.0117766

 Al 
  0.9987624  0.5106257  0.0216623

 Al 
  0.0106331  0.7651577  0.2329736

 Al 
  0.2513341  0.4836011  0.2459643

 Al 
  0.2435758  0.7449322  0.0027511

 Al 
  0.9933889  0.9855638  0.4979419

 Al 
  0.0017078  0.2583461  0.7456883

 Al 
  0.2523056  0.9961178  0.7423568

 Al 
  0.2464210  0.2515309  0.5016658

 Al 
  0.9770494  0.5033055  0.4960138

 Al 
  0.0049057  0.7482031  0.7577199

 Al 
  0.2496250  0.4973727  0.7613546

 Al 
  0.2430907  0.7380711  0.4887357

 Al 
  0.5007363  0.4990644  0.9939186

 Al 
  0.5029850  0.7474729  0.2596134

 Al 
  0.7471016  0.5178952  0.2686290

 Al 
  0.7496250  0.7498911  0.9926501

 Al 
  0.4892146  0.0107915  0.4860811

 Al 
  0.5209123  0.2477204  0.7616380

 Al 
  0.7762326  0.0026199  0.7484246

 Al 
  0.7484889  0.2547015  0.5055925

 Al 
  0.4916465  0.4882258  0.5178679

 Al 
  0.4973751  0.7517920  0.7379424

 Al 
  0.7501337  0.5012017  0.7584810

 Al 
  0.7298624  0.7609227  0.5056903

