32 
charge = 0 
 Al 
  0.0040666  0.0033488  0.9917974

 Al 
  0.0047980  0.2543760  0.2519863

 Al 
  0.2487191  0.0026781  0.2526905

 Al 
  0.2589773  0.2582533  0.9968467

 Al 
  0.4990582  0.9734988  0.9906465

 Al 
  0.5004059  0.2357755  0.2456475

 Al 
  0.7421737  0.9951500  0.2285233

 Al 
  0.7646354  0.2626875  0.0115873

 Al 
  0.9986412  0.5100045  0.0217786

 Al 
  0.0105750  0.7652109  0.2336481

 Al 
  0.2517536  0.4840466  0.2463405

 Al 
  0.2436959  0.7451203  0.0031743

 Al 
  0.9938951  0.9851740  0.4972130

 Al 
  0.0012017  0.2581097  0.7459408

 Al 
  0.2524999  0.9966747  0.7425709

 Al 
  0.2463764  0.2515593  0.5015977

 Al 
  0.9764677  0.5032016  0.4964816

 Al 
  0.0045579  0.7479852  0.7578511

 Al 
  0.2500173  0.4976969  0.7613175

 Al 
  0.2434892  0.7385228  0.4881763

 Al 
  0.5006225  0.4985285  0.9938456

 Al 
  0.5031756  0.7472836  0.2588931

 Al 
  0.7468566  0.5173457  0.2687008

 Al 
  0.7490867  0.7501299  0.9923952

 Al 
  0.4895364  0.0111938  0.4854215

 Al 
  0.5211834  0.2476313  0.7611690

 Al 
  0.7766125  0.0030246  0.7485867

 Al 
  0.7480026  0.2547795  0.5050431

 Al 
  0.4912554  0.4879907  0.5179694

 Al 
  0.4969630  0.7515395  0.7377061

 Al 
  0.7502500  0.5011126  0.7589723

 Al 
  0.7304527  0.7603671  0.5054836

