32 
charge = 0 
 Al 
  0.0036780  0.0030964  0.9923878

 Al 
  0.0047597  0.2544280  0.2522202

 Al 
  0.2489802  0.0030518  0.2528018

 Al 
  0.2593696  0.2586072  0.9967167

 Al 
  0.4993812  0.9732996  0.9912900

 Al 
  0.5003898  0.2356146  0.2455448

 Al 
  0.7419645  0.9955299  0.2284441

 Al 
  0.7642617  0.2630489  0.0113942

 Al 
  0.9985174  0.5093696  0.0218739

 Al 
  0.0104921  0.7652542  0.2343424

 Al 
  0.2521781  0.4845082  0.2467266

 Al 
  0.2438382  0.7453134  0.0035877

 Al 
  0.9944037  0.9847990  0.4964816

 Al 
  0.0007054  0.2578771  0.7461970

 Al 
  0.2526892  0.9972303  0.7427850

 Al 
  0.2463244  0.2515903  0.5015395

 Al 
  0.9759232  0.5031088  0.4969581

 Al 
  0.0042114  0.7477625  0.7579699

 Al 
  0.2504022  0.4980224  0.7612680

 Al 
  0.2438840  0.7389758  0.4876306

 Al 
  0.5005136  0.4980063  0.9937911

 Al 
  0.5033451  0.7470905  0.2581630

 Al 
  0.7466041  0.5167826  0.2687454

 Al 
  0.7485545  0.7503626  0.9921477

 Al 
  0.4898681  0.0115749  0.4847879

 Al 
  0.5214346  0.2475274  0.7607024

 Al 
  0.7769553  0.0034256  0.7487550

 Al 
  0.7475224  0.2548438  0.5044825

 Al 
  0.4908680  0.4877642  0.5180523

 Al 
  0.4965447  0.7512871  0.7374833

 Al 
  0.7503725  0.5010297  0.7594537

 Al 
  0.7310616  0.7598151  0.5052757

