32 
charge = 0 
 Al 
  0.9989567  0.0003106  0.0026212

 Al 
  0.0029491  0.2540864  0.2564675

 Al 
  0.2528390  0.0085107  0.2521806

 Al 
  0.2640736  0.2609215  0.9943951

 Al 
  0.5031125  0.9740372  0.0006175

 Al 
  0.5007995  0.2373088  0.2420907

 Al 
  0.7414225  0.0016620  0.2302708

 Al 
  0.7569303  0.2674484  0.0081704

 Al 
  0.9966351  0.4981919  0.0210472

 Al 
  0.0055628  0.7636243  0.2473863

 Al 
  0.2593820  0.4939335  0.2540320

 Al 
  0.2485471  0.7489048  0.0091765

 Al 
  0.0026286  0.9810826  0.4849624

 Al 
  0.9943641  0.2548983  0.7508811

 Al 
  0.2556408  0.0060084  0.7465596

 Al 
  0.2447082  0.2525766  0.5017177

 Al 
  0.9720299  0.5027511  0.5058834

 Al 
  0.9989741  0.7438246  0.7583919

 Al 
  0.2549899  0.5033377  0.7590305

 Al 
  0.2505297  0.7463690  0.4808165

 Al 
  0.4994344  0.4914744  0.9953282

 Al 
  0.5038785  0.7435214  0.2455968

 Al 
  0.7415920  0.5057274  0.2658148

 Al 
  0.7410933  0.7530320  0.9890958

 Al 
  0.4969445  0.0144300  0.4784788

 Al 
  0.5227823  0.2438308  0.7534751

 Al 
  0.7776137  0.0091901  0.7516435

 Al 
  0.7406873  0.2542721  0.4940609

 Al 
  0.4857074  0.4852544  0.5167257

 Al 
  0.4896020  0.7477749  0.7354364

 Al 
  0.7527957  0.5003911  0.7657641

 Al 
  0.7427924  0.7513143  0.5018811

