32 
charge = 0 
 Al 
  0.0009876  0.0014121  0.9972885

 Al 
  0.0041273  0.2545023  0.2542275

 Al 
  0.2509727  0.0058685  0.2530927

 Al 
  0.2621083  0.2605341  0.9955893

 Al 
  0.5016336  0.9726833  0.9962477

 Al 
  0.5004666  0.2353856  0.2442651

 Al 
  0.7409955  0.9985756  0.2285889

 Al 
  0.7609240  0.2656341  0.0097879

 Al 
  0.9975137  0.5039652  0.0219630

 Al 
  0.0088993  0.7651032  0.2404955

 Al 
  0.2557163  0.4887753  0.2501361

 Al 
  0.2456834  0.7470138  0.0065937

 Al 
  0.9985335  0.9823425  0.4905958

 Al 
  0.9971449  0.2561853  0.7483850

 Al 
  0.2541545  0.0016064  0.7445572

 Al 
  0.2457057  0.2519603  0.5013700

 Al 
  0.9728516  0.5027164  0.5011274

 Al 
  0.0015197  0.7458715  0.7584736

 Al 
  0.2530976  0.5006708  0.7604611

 Al 
  0.2470657  0.7426043  0.4837842

 Al 
  0.4998255  0.4942985  0.9940065

 Al 
  0.5040518  0.7454371  0.2520445

 Al 
  0.7443283  0.5117729  0.2681439

 Al 
  0.7445312  0.7519912  0.9904089

 Al 
  0.4929570  0.0138174  0.4807274

 Al 
  0.5227476  0.2461747  0.7570751

 Al 
  0.7784082  0.0064997  0.7502005

 Al 
  0.7438988  0.2549329  0.4996423

 Al 
  0.4880031  0.4862457  0.5180461

 Al 
  0.4930895  0.7493812  0.7361183

 Al 
  0.7515284  0.5005482  0.7629412

 Al 
  0.7365242  0.7554886  0.5036137

