32 
charge = 0 
 Al 
  0.9987439  0.0002116  0.0033229

 Al 
  0.0027660  0.2540072  0.2567633

 Al 
  0.2530679  0.0088374  0.2519739

 Al 
  0.2642530  0.2608658  0.9942478

 Al 
  0.5032338  0.9743651  0.0011064

 Al 
  0.5008477  0.2377135  0.2417603

 Al 
  0.7415821  0.0020519  0.2306000

 Al 
  0.7563871  0.2675994  0.0079699

 Al 
  0.9965460  0.4974568  0.0208703

 Al 
  0.0050171  0.7633075  0.2482724

 Al 
  0.2598374  0.4946277  0.2545456

 Al 
  0.2489580  0.7491486  0.0094760

 Al 
  0.0031310  0.9810344  0.4843065

 Al 
  0.9940758  0.2547696  0.7512202

 Al 
  0.2558339  0.0065665  0.7468318

 Al 
  0.2445560  0.2526707  0.5017945

 Al 
  0.9720880  0.5027660  0.5065096

 Al 
  0.9986659  0.7435684  0.7583548

 Al 
  0.2551569  0.5036644  0.7588164

 Al 
  0.2510000  0.7468603  0.4805072

 Al 
  0.4994035  0.4911923  0.9955633

 Al 
  0.5038179  0.7432639  0.2447812

 Al 
  0.7412220  0.5048970  0.2654039

 Al 
  0.7407183  0.7531112  0.9889597

 Al 
  0.4975075  0.0143792  0.4783266

 Al 
  0.5226907  0.2434681  0.7530172

 Al 
  0.7773576  0.0094884  0.7518130

 Al 
  0.7403235  0.2541359  0.4933085

 Al 
  0.4854735  0.4851691  0.5164546

 Al 
  0.4891788  0.7476053  0.7354005

 Al 
  0.7529479  0.5003923  0.7660722

 Al 
  0.7436142  0.7508057  0.5016509

