32 
charge = 0 
 Al 
  0.0001559  0.0009331  0.9992290

 Al 
  0.0037473  0.2543946  0.2550394

 Al 
  0.2516831  0.0068697  0.2529021

 Al 
  0.2629461  0.2608559  0.9951413

 Al 
  0.5022907  0.9729382  0.9979729

 Al 
  0.5005718  0.2358386  0.2435535

 Al 
  0.7409819  0.9997265  0.2290270

 Al 
  0.7595045  0.2664249  0.0091790

 Al 
  0.9971586  0.5018304  0.0217266

 Al 
  0.0078610  0.7647431  0.2430189

 Al 
  0.2570875  0.4906156  0.2515457

 Al 
  0.2466561  0.7477056  0.0076036

 Al 
  0.0000817  0.9817064  0.4884251

 Al 
  0.9960076  0.2556507  0.7492797

 Al 
  0.2547015  0.0032437  0.7452750

 Al 
  0.2453765  0.2521620  0.5014405

 Al 
  0.9722798  0.5026979  0.5028489

 Al 
  0.0005495  0.7451141  0.7584971

 Al 
  0.2539132  0.5016757  0.7599896

 Al 
  0.2483120  0.7439879  0.4825702

 Al 
  0.4996461  0.4931291  0.9943790

 Al 
  0.5040679  0.7447515  0.2496535

 Al 
  0.7433555  0.5096344  0.2674731

 Al 
  0.7431612  0.7524615  0.9898693

 Al 
  0.4943419  0.0142518  0.4796718

 Al 
  0.5229159  0.2454136  0.7557336

 Al 
  0.7783724  0.0075640  0.7507537

 Al 
  0.7426415  0.2547733  0.4976424

 Al 
  0.4870625  0.4858126  0.5177182

 Al 
  0.4917727  0.7487340  0.7357829

 Al 
  0.7520049  0.5004529  0.7640760

 Al 
  0.7387963  0.7539057  0.5029813

