32 
charge = 0 
 Al 
  0.9975187  0.9997327  0.0083659

 Al 
  0.0013168  0.2533488  0.2589117

 Al 
  0.2546607  0.0111046  0.2499455

 Al 
  0.2650030  0.2598621  0.9932615

 Al 
  0.5036582  0.9777424  0.0040431

 Al 
  0.5011212  0.2415165  0.2392023

 Al 
  0.7433617  0.0047300  0.2336642

 Al 
  0.7523811  0.2679830  0.0065801

 Al 
  0.9961735  0.4923939  0.0193035

 Al 
  0.0004381  0.7600589  0.2543141

 Al 
  0.2628298  0.4996312  0.2581989

 Al 
  0.2519603  0.7508638  0.0113930

 Al 
  0.0064997  0.9815715  0.4803153

 Al 
  0.9924967  0.2540815  0.7537337

 Al 
  0.2571927  0.0104611  0.7488392

 Al 
  0.2433320  0.2534021  0.5025135

 Al 
  0.9735261  0.5027759  0.5109227

 Al 
  0.9966338  0.7419113  0.7580466

 Al 
  0.2557906  0.5058005  0.7572001

 Al 
  0.2545592  0.7504864  0.4787758

 Al 
  0.4992612  0.4897666  0.9975224

 Al 
  0.5033092  0.7414014  0.2392208

 Al 
  0.7385513  0.4987971  0.2618657

 Al 
  0.7385303  0.7533068  0.9881961

 Al 
  0.5017648  0.0131615  0.4780320

 Al 
  0.5214259  0.2405834  0.7497636

 Al 
  0.7746126  0.0111950  0.7528687

 Al 
  0.7381355  0.2528674  0.4878150

 Al 
  0.4843127  0.4848399  0.5138867

 Al 
  0.4864462  0.7467068  0.7354648

 Al 
  0.7538278  0.5005074  0.7679001

 Al 
  0.7493676  0.7474098  0.4999319

