32 
charge = 0 
 Al 
  0.9985409  0.0001200  0.0040307

 Al 
  0.0025754  0.2539231  0.2570628

 Al 
  0.2532956  0.0091629  0.2517450

 Al 
  0.2644164  0.2607866  0.9941018

 Al 
  0.5033389  0.9747314  0.0015791

 Al 
  0.5008948  0.2381541  0.2414187

 Al 
  0.7417653  0.0024405  0.2309564

 Al 
  0.7558339  0.2677281  0.0077694

 Al 
  0.9964643  0.4967229  0.0206797

 Al 
  0.0044428  0.7629573  0.2491572

 Al 
  0.2602879  0.4953307  0.2550653

 Al 
  0.2493763  0.7493948  0.0097693

 Al 
  0.0036285  0.9810158  0.4836679

 Al 
  0.9938023  0.2546483  0.7515643

 Al 
  0.2560282  0.0071259  0.7471066

 Al 
  0.2443976  0.2527672  0.5018786

 Al 
  0.9721833  0.5027808  0.5071395

 Al 
  0.9983615  0.7433147  0.7583152

 Al 
  0.2553067  0.5039874  0.7585973

 Al 
  0.2514789  0.7473590  0.4802126

 Al 
  0.4993763  0.4909274  0.9958121

 Al 
  0.5037511  0.7430028  0.2439681

 Al 
  0.7408470  0.5040543  0.2649671

 Al 
  0.7403557  0.7531768  0.9888310

 Al 
  0.4980855  0.0142988  0.4782016

 Al 
  0.5225781  0.2430907  0.7525580

 Al 
  0.7770667  0.0097743  0.7519789

 Al 
  0.7399708  0.2539874  0.4925449

 Al 
  0.4852557  0.4850923  0.5161601

 Al 
  0.4887605  0.7474457  0.7353757

 Al 
  0.7530951  0.5003973  0.7663692

 Al 
  0.7444409  0.7503020  0.5014170

