32 
charge = 0 
 Al 
  0.9983466  0.0000371  0.0047448

 Al 
  0.0023786  0.2538352  0.2573660

 Al 
  0.2535233  0.0094884  0.2514962

 Al 
  0.2645624  0.2606851  0.9939557

 Al 
  0.5034293  0.9751361  0.0020358

 Al 
  0.5009418  0.2386305  0.2410673

 Al 
  0.7419732  0.0028291  0.2313413

 Al 
  0.7552733  0.2678358  0.0075702

 Al 
  0.9963900  0.4959903  0.0204767

 Al 
  0.0038402  0.7625712  0.2500384

 Al 
  0.2607334  0.4960410  0.2555864

 Al 
  0.2498020  0.7496411  0.0100564

 Al 
  0.0041223  0.9810257  0.4830479

 Al 
  0.9935436  0.2545344  0.7519145

 Al 
  0.2562225  0.0076853  0.7473875

 Al 
  0.2442342  0.2528674  0.5019702

 Al 
  0.9723145  0.5027919  0.5077731

 Al 
  0.9980595  0.7430647  0.7582719

 Al 
  0.2554378  0.5043055  0.7583721

 Al 
  0.2519677  0.7478627  0.4799329

 Al 
  0.4993515  0.4906824  0.9960720

 Al 
  0.5036805  0.7427380  0.2431575

 Al 
  0.7404671  0.5031979  0.2645067

 Al 
  0.7400092  0.7532300  0.9887072

 Al 
  0.4986746  0.0141874  0.4781038

 Al 
  0.5224420  0.2426996  0.7520964

 Al 
  0.7767413  0.0100478  0.7521397

 Al 
  0.7396292  0.2538278  0.4917714

 Al 
  0.4850527  0.4850255  0.5158408

 Al 
  0.4883483  0.7472947  0.7353633

 Al 
  0.7532375  0.5004072  0.7666564

 Al 
  0.7452700  0.7498020  0.5011782

