32 
charge = 0 
 Al 
  0.9966004  0.9995557  0.0165029

 Al 
  0.9986981  0.2523093  0.2624301

 Al 
  0.2573524  0.0147394  0.2447144

 Al 
  0.2638756  0.2562980  0.9920734

 Al 
  0.5030667  0.9875427  0.0066036

 Al 
  0.5006472  0.2505854  0.2350045

 Al 
  0.7484345  0.0084662  0.2412282

 Al 
  0.7455052  0.2650958  0.0042238

 Al 
  0.9970954  0.4852235  0.0160945

 Al 
  0.9907368  0.7500408  0.2620081

 Al 
  0.2658495  0.5073350  0.2634288

 Al 
  0.2561618  0.7534070  0.0135439

 Al 
  0.0111108  0.9864920  0.4773835

 Al 
  0.9918420  0.2535852  0.7580862

 Al 
  0.2590763  0.0162121  0.7522771

 Al 
  0.2409361  0.2547164  0.5042238

 Al 
  0.9799020  0.5014739  0.5173618

 Al 
  0.9942429  0.7405438  0.7578783

 Al 
  0.2544428  0.5081840  0.7544391

 Al 
  0.2614499  0.7572930  0.4779046

 Al 
  0.4989580  0.4899881  0.0011113

 Al 
  0.5030989  0.7385835  0.2318128

 Al 
  0.7346703  0.4890080  0.2541322

 Al 
  0.7369932  0.7523650  0.9878954

 Al 
  0.5091456  0.0077335  0.4802485

 Al 
  0.5169546  0.2354252  0.7442441

 Al 
  0.7668742  0.0119586  0.7538587

 Al 
  0.7365762  0.2498639  0.4791372

 Al 
  0.4850094  0.4855700  0.5074823

 Al 
  0.4837706  0.7466648  0.7366517

 Al 
  0.7537424  0.5008626  0.7690993

 Al 
  0.7571803  0.7428754  0.4969148

