32 
charge = 0 
 Al 
  0.9966833  0.9995458  0.0146354

 Al 
  0.9993156  0.2525048  0.2616232

 Al 
  0.2566940  0.0138817  0.2461450

 Al 
  0.2644473  0.2573239  0.9922863

 Al 
  0.5033055  0.9847037  0.0062831

 Al 
  0.5009344  0.2481981  0.2359091

 Al 
  0.7470224  0.0076989  0.2391750

 Al 
  0.7471462  0.2662801  0.0048215

 Al 
  0.9966611  0.4867370  0.0168717

 Al 
  0.9932256  0.7530209  0.2605614

 Al 
  0.2654646  0.5056433  0.2623632

 Al 
  0.2553500  0.7528526  0.0131813

 Al 
  0.0101406  0.9848077  0.4775655

 Al 
  0.9917566  0.2536644  0.7570541

 Al 
  0.2587100  0.0149720  0.7514690

 Al 
  0.2415215  0.2544020  0.5037585

 Al 
  0.9779058  0.5020271  0.5159943

 Al 
  0.9946587  0.7406378  0.7578350

 Al 
  0.2550554  0.5077929  0.7550963

 Al 
  0.2596889  0.7555517  0.4778513

 Al 
  0.4990793  0.4896045  0.0002945

 Al 
  0.5029838  0.7391849  0.2332793

 Al 
  0.7354586  0.4911836  0.2561482

 Al 
  0.7371009  0.7527189  0.9878286

 Al 
  0.5074068  0.0094290  0.4794329

 Al 
  0.5182974  0.2366071  0.7455881

 Al 
  0.7690585  0.0120613  0.7537275

 Al 
  0.7366640  0.2506522  0.4810430

 Al 
  0.4844624  0.4852260  0.5092124

 Al 
  0.4841221  0.7464828  0.7362593

 Al 
  0.7540196  0.5007896  0.7690807

 Al 
  0.7556606  0.7438109  0.4976226

