32 
charge = 0 
 Al 
  0.9969742  0.9997017  0.0215534

 Al 
  0.9971140  0.2522635  0.2644374

 Al 
  0.2593807  0.0172479  0.2399485

 Al 
  0.2607903  0.2528353  0.9918222

 Al 
  0.5023353  0.9980694  0.0062856

 Al 
  0.4986127  0.2579984  0.2332855

 Al 
  0.7531694  0.0098745  0.2480979

 Al 
  0.7407653  0.2590602  0.0020185

 Al 
  0.9993020  0.4817596  0.0140067

 Al 
  0.9830788  0.7385996  0.2641825

 Al 
  0.2649151  0.5114388  0.2653965

 Al 
  0.2573152  0.7548463  0.0137605

 Al 
  0.0134486  0.9935622  0.4792832

 Al 
  0.9930944  0.2531979  0.7610378

 Al 
  0.2595379  0.0189669  0.7544924

 Al 
  0.2394213  0.2556334  0.5058376

 Al 
  0.9879276  0.4984481  0.5204581

 Al 
  0.9938617  0.7415771  0.7585144

 Al 
  0.2515049  0.5084451  0.7524269

 Al 
  0.2670672  0.7631305  0.4793377

 Al 
  0.4980719  0.4925783  0.0028018

 Al 
  0.5046594  0.7374387  0.2291594

 Al 
  0.7334365  0.4839117  0.2475731

 Al 
  0.7378162  0.7509232  0.9889053

 Al 
  0.5140562  0.0009950  0.4838015

 Al 
  0.5117420  0.2328103  0.7400389

 Al 
  0.7590577  0.0101728  0.7536855

 Al 
  0.7376070  0.2474655  0.4748998

 Al 
  0.4886949  0.4874635  0.5018229

 Al 
  0.4842854  0.7480867  0.7382456

 Al 
  0.7514554  0.5007945  0.7676959

 Al 
  0.7594995  0.7407047  0.4951871

