32 
charge = 0 
 Al 
  0.9968269  0.9996683  0.0206958

 Al 
  0.9973578  0.2521843  0.2641404

 Al 
  0.2589971  0.0167937  0.2408643

 Al 
  0.2615366  0.2534986  0.9918135

 Al 
  0.5024454  0.9958814  0.0065009

 Al 
  0.4991659  0.2566346  0.2334464

 Al 
  0.7522511  0.0097520  0.2467601

 Al 
  0.7416093  0.2605032  0.0024974

 Al 
  0.9987897  0.4822546  0.0143520

 Al 
  0.9844884  0.7410227  0.2640711

 Al 
  0.2653866  0.5108138  0.2652047

 Al 
  0.2572831  0.7546025  0.0138409

 Al 
  0.0130835  0.9920276  0.4786199

 Al 
  0.9927516  0.2533130  0.7605106

 Al 
  0.2595515  0.0186068  0.7541174

 Al 
  0.2396453  0.2554676  0.5055183

 Al 
  0.9861913  0.4991857  0.5200225

 Al 
  0.9938184  0.7412059  0.7583276

 Al 
  0.2521670  0.5085144  0.7528056

 Al 
  0.2660017  0.7619623  0.4789095

 Al 
  0.4983219  0.4919212  0.0026249

 Al 
  0.5041953  0.7375390  0.2294094

 Al 
  0.7334860  0.4846406  0.2488478

 Al 
  0.7375167  0.7512277  0.9886058

 Al 
  0.5131899  0.0024467  0.4830120

 Al 
  0.5128570  0.2331308  0.7408458

 Al 
  0.7606554  0.0107037  0.7537956

 Al 
  0.7372568  0.2478961  0.4754517

 Al 
  0.4877370  0.4869957  0.5029083

 Al 
  0.4839773  0.7477142  0.7378954

 Al 
  0.7520766  0.5008564  0.7681538

 Al 
  0.7593820  0.7410326  0.4954297

