32 
charge = 0 
 Al 
  0.9966697  0.9996188  0.0192651

 Al 
  0.9977971  0.2521521  0.2635884

 Al 
  0.2584006  0.0160660  0.2422900

 Al 
  0.2625427  0.2545357  0.9918568

 Al 
  0.5026558  0.9926575  0.0066903

 Al 
  0.4998540  0.2544589  0.2338671

 Al 
  0.7508341  0.0094117  0.2447032

 Al 
  0.7429781  0.2624573  0.0031756

 Al 
  0.9980781  0.4831840  0.0149399

 Al 
  0.9867333  0.7445535  0.2636045

 Al 
  0.2658247  0.5096926  0.2647282

 Al 
  0.2570479  0.7541990  0.0138458

 Al 
  0.0124437  0.9898136  0.4778786

 Al 
  0.9923110  0.2534417  0.7596604

 Al 
  0.2594686  0.0178791  0.7534875

 Al 
  0.2400661  0.2552015  0.5050307

 Al 
  0.9836939  0.5001757  0.5191971

 Al 
  0.9938617  0.7408012  0.7581023

 Al 
  0.2531063  0.5085082  0.7533971

 Al 
  0.2643384  0.7602099  0.4783922

 Al 
  0.4986238  0.4910561  0.0021954

 Al 
  0.5036421  0.7378187  0.2300480

 Al 
  0.7337545  0.4860118  0.2507995

 Al 
  0.7371888  0.7516744  0.9882481

 Al 
  0.5117816  0.0045394  0.4818920

 Al 
  0.5144671  0.2338152  0.7420870

 Al 
  0.7630328  0.0113398  0.7538897

 Al 
  0.7368571  0.2485966  0.4765705

 Al 
  0.4865019  0.4863757  0.5045914

 Al 
  0.4837063  0.7472328  0.7373991

 Al 
  0.7528575  0.5009009  0.7686773

 Al 
  0.7588820  0.7416192  0.4959000

