32 
charge = 0 
 Al 
  0.9965979  0.9995755  0.0176637

 Al 
  0.9983157  0.2522177  0.2629251

 Al 
  0.2577793  0.0152851  0.2437441

 Al 
  0.2633966  0.2555950  0.9919657

 Al 
  0.5028984  0.9895389  0.0067026

 Al 
  0.5003799  0.2521620  0.2344896

 Al 
  0.7493936  0.0088981  0.2426179

 Al 
  0.7444607  0.2641379  0.0038142

 Al 
  0.9974531  0.4843337  0.0156081

 Al 
  0.9891045  0.7479147  0.2627692

 Al 
  0.2659423  0.5083511  0.2640228

 Al 
  0.2565888  0.7537436  0.0137110

 Al 
  0.0116863  0.9877531  0.4774652

 Al 
  0.9919855  0.2535332  0.7587384

 Al 
  0.2592681  0.0169435  0.7527833

 Al 
  0.2405673  0.2549168  0.5045443

 Al 
  0.9813549  0.5010099  0.5181649

 Al 
  0.9940436  0.7405834  0.7579452

 Al 
  0.2539503  0.5083622  0.7540147

 Al 
  0.2626169  0.7584587  0.4780407

 Al 
  0.4988466  0.4903544  0.0015927

 Al 
  0.5032610  0.7382382  0.2310022

 Al 
  0.7342396  0.4877085  0.2527907

 Al 
  0.7370167  0.7521001  0.9880006

 Al 
  0.5102421  0.0065059  0.4808673

 Al 
  0.5159930  0.2347198  0.7433679

 Al 
  0.7653619  0.0117779  0.7538996

 Al 
  0.7366269  0.2493466  0.4780110

 Al 
  0.4855205  0.4858584  0.5063202

 Al 
  0.4836667  0.7468541  0.7369388

 Al 
  0.7534516  0.5008923  0.7689978

 Al 
  0.7579897  0.7423284  0.4964791

