32 
charge = 0 
 Al 
  0.9967662  0.9996522  0.0202391

 Al 
  0.9974952  0.2521620  0.2639696

 Al 
  0.2588015  0.0165573  0.2413346

 Al 
  0.2618880  0.2538402  0.9918209

 Al 
  0.5025110  0.9947973  0.0065826

 Al 
  0.4994134  0.2559254  0.2335627

 Al 
  0.7517833  0.0096592  0.2460794

 Al 
  0.7420524  0.2611839  0.0027288

 Al 
  0.9985434  0.4825405  0.0145389

 Al 
  0.9852198  0.7422157  0.2639560

 Al 
  0.2655673  0.5104648  0.2650710

 Al 
  0.2572298  0.7544738  0.0138582

 Al 
  0.0128830  0.9912764  0.4783377

 Al 
  0.9925944  0.2533612  0.7602346

 Al 
  0.2595379  0.0183889  0.7539156

 Al 
  0.2397753  0.2553809  0.5053574

 Al 
  0.9853435  0.4995310  0.5197713

 Al 
  0.9938171  0.7410499  0.7582446

 Al 
  0.2524887  0.5085268  0.7529999

 Al 
  0.2654547  0.7613781  0.4787189

 Al 
  0.4984320  0.4916168  0.0025024

 Al 
  0.5039924  0.7376157  0.2295876

 Al 
  0.7335503  0.4850601  0.2494938

 Al 
  0.7373905  0.7513774  0.9884746

 Al 
  0.5127358  0.0031558  0.4826296

 Al 
  0.5134016  0.2333325  0.7412554

 Al 
  0.7614512  0.0109376  0.7538364

 Al 
  0.7371058  0.2481226  0.4757871

 Al 
  0.4872977  0.4867779  0.5034627

 Al 
  0.4838609  0.7475434  0.7377259

 Al 
  0.7523576  0.5008774  0.7683506

 Al 
  0.7592594  0.7412158  0.4955732

