32 
charge = 0 
 Al 
  0.9971524  0.9997290  0.0223318

 Al 
  0.9969148  0.2523922  0.2646725

 Al 
  0.2597520  0.0176736  0.2390711

 Al 
  0.2599896  0.2522041  0.9918618

 Al 
  0.5022524  0.0002710  0.0060071

 Al 
  0.4979803  0.2592792  0.2332261

 Al 
  0.7540580  0.0099092  0.2493998

 Al 
  0.7399770  0.2575132  0.0015160

 Al 
  0.9998379  0.4813648  0.0136998

 Al 
  0.9817509  0.7361343  0.2641392

 Al 
  0.2643025  0.5119672  0.2654869

 Al 
  0.2572484  0.7550703  0.0136181

 Al 
  0.0137704  0.9951240  0.4800728

 Al 
  0.9934669  0.2530518  0.7615341

 Al 
  0.2594636  0.0192218  0.7548302

 Al 
  0.2392505  0.2557881  0.5061470

 Al 
  0.9897072  0.4976585  0.5208034

 Al 
  0.9939619  0.7420289  0.7587273

 Al 
  0.2508255  0.5083238  0.7520630

 Al 
  0.2680895  0.7642963  0.4798290

 Al 
  0.4977811  0.4932899  0.0028835

 Al 
  0.5051978  0.7374140  0.2290468

 Al 
  0.7334946  0.4833337  0.2463220

 Al 
  0.7381800  0.7506188  0.9892493

 Al 
  0.5148644  0.9995099  0.4846171

 Al 
  0.5106022  0.2326110  0.7392493

 Al 
  0.7574576  0.0095577  0.7535382

 Al 
  0.7380179  0.2470695  0.4745075

 Al 
  0.4897555  0.4879758  0.5007747

 Al 
  0.4846938  0.7484939  0.7386157

 Al 
  0.7507574  0.5007029  0.7671539

 Al 
  0.7594476  0.7404188  0.4950077

