32 
charge = 0 
 Al 
  0.9972526  0.9997413  0.0226919

 Al 
  0.9968318  0.2524764  0.2647641

 Al 
  0.2599327  0.0178754  0.2386503

 Al 
  0.2595688  0.2519034  0.9918915

 Al 
  0.5022239  0.0013725  0.0058450

 Al 
  0.4976350  0.2598869  0.2332347

 Al 
  0.7544899  0.0098931  0.2500334

 Al 
  0.7396045  0.2567051  0.0012549

 Al 
  0.0001114  0.4812039  0.0135600

 Al 
  0.9811197  0.7348918  0.2640599

 Al 
  0.2639436  0.5121962  0.2654943

 Al 
  0.2571779  0.7551767  0.0135253

 Al 
  0.0139152  0.9959111  0.4805133

 Al 
  0.9936612  0.2529652  0.7617705

 Al 
  0.2594030  0.0193085  0.7549837

 Al 
  0.2391887  0.2558611  0.5062955

 Al 
  0.9906094  0.4972464  0.5209433

 Al 
  0.9940325  0.7422838  0.7588436

 Al 
  0.2504826  0.5082434  0.7518860

 Al 
  0.2685820  0.7648767  0.4800963

 Al 
  0.4976177  0.4936637  0.0028872

 Al 
  0.5054923  0.7374313  0.2290419

 Al 
  0.7335652  0.4831011  0.2457057

 Al 
  0.7383855  0.7504678  0.9894386

 Al 
  0.5152455  0.9987575  0.4850329

 Al 
  0.5100243  0.2325578  0.7388607

 Al 
  0.7566581  0.0092198  0.7534516

 Al 
  0.7382432  0.2468863  0.4743738

 Al 
  0.4903223  0.4882481  0.5002648

 Al 
  0.4849339  0.7487092  0.7388075

 Al 
  0.7503812  0.5006460  0.7668519

 Al 
  0.7593609  0.7402913  0.4949433

