32 
charge = 0 
 Al 
  0.9974704  0.9997574  0.0233516

 Al 
  0.9967031  0.2526806  0.2648953

 Al 
  0.2602866  0.0182553  0.2378533

 Al 
  0.2586939  0.2513366  0.9919756

 Al 
  0.5021930  0.0035691  0.0054799

 Al 
  0.4968875  0.2610304  0.2333300

 Al 
  0.7553252  0.0097916  0.2512623

 Al 
  0.7389053  0.2550270  0.0007178

 Al 
  0.0006695  0.4809589  0.0133063

 Al 
  0.9799267  0.7323944  0.2637926

 Al 
  0.2631268  0.5125860  0.2654374

 Al 
  0.2569675  0.7553735  0.0132964

 Al 
  0.0141750  0.9974828  0.4814799

 Al 
  0.9940622  0.2527622  0.7622209

 Al 
  0.2592347  0.0193988  0.7552621

 Al 
  0.2391156  0.2559985  0.5065826

 Al 
  0.9924311  0.4963950  0.5211549

 Al 
  0.9942119  0.7428469  0.7590948

 Al 
  0.2497983  0.5080503  0.7515482

 Al 
  0.2695250  0.7660339  0.4806693

 Al 
  0.4972600  0.4944446  0.0028155

 Al 
  0.5061296  0.7375278  0.2291335

 Al 
  0.7337916  0.4827434  0.2444941

 Al 
  0.7388409  0.7501671  0.9898483

 Al 
  0.5159646  0.9972415  0.4858757

 Al 
  0.5088535  0.2325504  0.7380971

 Al 
  0.7550666  0.0084860  0.7532523

 Al 
  0.7387283  0.2465522  0.4742327

 Al 
  0.4915239  0.4888248  0.4992797

 Al 
  0.4854859  0.7491597  0.7392085

 Al 
  0.7495780  0.5005086  0.7661898

 Al 
  0.7590689  0.7400624  0.4948678

