32 
charge = 0 
 Al 
  0.9993033  0.9996052  0.0256485

 Al 
  0.9971994  0.2552559  0.2636293

 Al 
  0.2624462  0.0198975  0.2347037

 Al 
  0.2517289  0.2492117  0.9932380

 Al 
  0.5029553  0.0172578  0.0018167

 Al 
  0.4901317  0.2660598  0.2368323

 Al 
  0.7597483  0.0066197  0.2578325

 Al 
  0.7359227  0.2423197  0.9965905

 Al 
  0.0043896  0.4819217  0.0120774

 Al 
  0.9745260  0.7159113  0.2587025

 Al 
  0.2545988  0.5131862  0.2627853

 Al 
  0.2534429  0.7561977  0.0103460

 Al 
  0.0149881  0.0073474  0.4906935

 Al 
  0.9965744  0.2500705  0.7645265

 Al 
  0.2562856  0.0168828  0.7560034

 Al 
  0.2410289  0.2564081  0.5077756

 Al 
  0.0044181  0.4904015  0.5204086

 Al 
  0.9965175  0.7483144  0.7611665

 Al 
  0.2458950  0.5059106  0.7499579

 Al 
  0.2739283  0.7733268  0.4855948

 Al 
  0.4936488  0.5003663  0.9994765

 Al 
  0.5116071  0.7404336  0.2329947

 Al 
  0.7380699  0.4835936  0.2369474

 Al 
  0.7433357  0.7483355  0.9934657

 Al 
  0.5194211  0.9875056  0.4916650

 Al 
  0.5008081  0.2362767  0.7333276

 Al 
  0.7448765  0.0016608  0.7510383

 Al 
  0.7427763  0.2456116  0.4778724

 Al 
  0.5014987  0.4938679  0.4938357

 Al 
  0.4914225  0.7525444  0.7428147

 Al 
  0.7427306  0.4986251  0.7598658

 Al 
  0.7537770  0.7390748  0.4963665

