32 
charge = 0 
 Al 
  0.9995520  0.9995532  0.0256460

 Al 
  0.9974531  0.2557101  0.2631429

 Al 
  0.2627085  0.0199631  0.2346827

 Al 
  0.2506930  0.2492216  0.9934805

 Al 
  0.5031583  0.0187553  0.0012041

 Al 
  0.4891033  0.2663581  0.2376751

 Al 
  0.7601431  0.0058735  0.2584315

 Al 
  0.7358039  0.2406156  0.9960175

 Al 
  0.0048314  0.4823821  0.0118843

 Al 
  0.9741919  0.7139300  0.2577001

 Al 
  0.2531719  0.5130414  0.2621813

 Al 
  0.2527647  0.7562336  0.0097953

 Al 
  0.0149609  0.0084637  0.4922380

 Al 
  0.9968021  0.2495087  0.7647307

 Al 
  0.2556519  0.0161217  0.7559440

 Al 
  0.2416811  0.2563635  0.5077929

 Al 
  0.0058289  0.4896812  0.5200423

 Al 
  0.9969333  0.7492067  0.7614450

 Al 
  0.2455621  0.5055604  0.7498663

 Al 
  0.2741684  0.7741399  0.4863460

 Al 
  0.4930300  0.5011645  0.9986671

 Al 
  0.5124029  0.7411217  0.2338807

 Al 
  0.7389152  0.4840194  0.2360391

 Al 
  0.7440820  0.7481424  0.9940090

 Al 
  0.5197131  0.9864524  0.4924038

 Al 
  0.4997797  0.2373026  0.7327533

 Al 
  0.7436575  0.0005532  0.7506324

 Al 
  0.7433555  0.2456809  0.4789726

 Al 
  0.5029689  0.4946847  0.4932837

 Al 
  0.4924571  0.7529900  0.7434620

 Al 
  0.7416997  0.4982278  0.7588189

 Al 
  0.7527771  0.7389783  0.4968331

