32 
charge = 0 
 Al 
  0.9983664  0.9997364  0.0250136

 Al 
  0.9966499  0.2537671  0.2647505

 Al 
  0.2614338  0.0193146  0.2356641

 Al 
  0.2553339  0.2498168  0.9924830

 Al 
  0.5023774  0.0109574  0.0038377

 Al 
  0.4937429  0.2642146  0.2344921

 Al 
  0.7578820  0.0087124  0.2550493

 Al 
  0.7369685  0.2486981  0.9986869

 Al 
  0.0026236  0.4808846  0.0126343

 Al 
  0.9765581  0.7237575  0.2618249

 Al 
  0.2593399  0.5132976  0.2645401

 Al 
  0.2555690  0.7559155  0.0120749

 Al 
  0.0147988  0.0027845  0.4856430

 Al 
  0.9954606  0.2517029  0.7635624

 Al 
  0.2581295  0.0188122  0.7558982

 Al 
  0.2394943  0.2563450  0.5073920

 Al 
  0.9987538  0.4932875  0.5212329

 Al 
  0.9951834  0.7453245  0.7601047

 Al 
  0.2475608  0.5070962  0.7505557

 Al 
  0.2722712  0.7699396  0.4829971

 Al 
  0.4956673  0.4973937  0.0017313

 Al 
  0.5087483  0.7385167  0.2304403

 Al 
  0.7354277  0.4825467  0.2404856

 Al 
  0.7408557  0.7491684  0.9915512

 Al 
  0.5180263  0.9920152  0.4888557

 Al 
  0.5047188  0.2335986  0.7355713

 Al 
  0.7496807  0.0053648  0.7523031

 Al 
  0.7406873  0.2457626  0.4750755

 Al 
  0.4963046  0.4911589  0.4962168

 Al 
  0.4880798  0.7508613  0.7408185

 Al 
  0.7463306  0.4997711  0.7633273

 Al 
  0.7569761  0.7394745  0.4951884

