32 
charge = 0 
 Al 
  0.9989097  0.9996733  0.0255012

 Al 
  0.9968950  0.2545889  0.2642258

 Al 
  0.2620303  0.0197119  0.2349488

 Al 
  0.2532845  0.2493503  0.9928927

 Al 
  0.5026731  0.0147418  0.0027127

 Al 
  0.4916972  0.2654299  0.2357024

 Al 
  0.7590392  0.0076246  0.2567719

 Al 
  0.7362532  0.2450002  0.9974791

 Al 
  0.0036706  0.4813574  0.0123261

 Al 
  0.9752314  0.7191216  0.2601369

 Al 
  0.2567002  0.5133174  0.2636181

 Al 
  0.2544144  0.7561074  0.0111331

 Al 
  0.0149609  0.0055096  0.4884498

 Al 
  0.9961524  0.2508366  0.7641602

 Al 
  0.2571543  0.0178605  0.7560207

 Al 
  0.2402233  0.2564205  0.5076704

 Al 
  0.0021162  0.4915784  0.5208566

 Al 
  0.9959160  0.7469964  0.7607198

 Al 
  0.2465175  0.5064304  0.7501609

 Al 
  0.2733677  0.7719667  0.4844674

 Al 
  0.4945510  0.4991164  0.0005643

 Al 
  0.5103844  0.7395117  0.2317781

 Al 
  0.7368546  0.4830367  0.2383979

 Al 
  0.7422368  0.7486659  0.9926402

 Al 
  0.5188988  0.9893000  0.4904980

 Al 
  0.5024330  0.2349438  0.7342483

 Al 
  0.7468405  0.0032932  0.7516125

 Al 
  0.7418865  0.2455980  0.4764566

 Al 
  0.4992649  0.4926724  0.4947688

 Al 
  0.4899262  0.7518415  0.7419088

 Al 
  0.7442862  0.4991646  0.7613992

 Al 
  0.7552299  0.7392320  0.4957675

