32 
charge = 0 
 Al 
  0.9997896  0.9994963  0.0255656

 Al 
  0.9977464  0.2561655  0.2625910

 Al 
  0.2629548  0.0199792  0.2347755

 Al 
  0.2496621  0.2493094  0.9937268

 Al 
  0.5033612  0.0200968  0.0005841

 Al 
  0.4881058  0.2665660  0.2385798

 Al 
  0.7604760  0.0050752  0.2589451

 Al 
  0.7357680  0.2389981  0.9954668

 Al 
  0.0052398  0.4829006  0.0116554

 Al 
  0.9739654  0.7120947  0.2566791

 Al 
  0.2517388  0.5128570  0.2615452

 Al 
  0.2520704  0.7562559  0.0092297

 Al 
  0.0148978  0.0094909  0.4938109

 Al 
  0.9969853  0.2489109  0.7649015

 Al 
  0.2549812  0.0152827  0.7558500

 Al 
  0.2424224  0.2562918  0.5077682

 Al 
  0.0071333  0.4890191  0.5196302

 Al 
  0.9973553  0.7501015  0.7617036

 Al 
  0.2452973  0.5052126  0.7498082

 Al 
  0.2742971  0.7748701  0.4870935

 Al 
  0.4924063  0.5019269  0.9978058

 Al 
  0.5131739  0.7418618  0.2348139

 Al 
  0.7397654  0.4844661  0.2351752

 Al 
  0.7448282  0.7479692  0.9945386

 Al 
  0.5199644  0.9855267  0.4931093

 Al 
  0.4988020  0.2384263  0.7322125

 Al 
  0.7425152  0.9994394  0.7502116

 Al 
  0.7439174  0.2457948  0.4801841

 Al 
  0.5044107  0.4955138  0.4927850

 Al 
  0.4935115  0.7534120  0.7441463

 Al 
  0.7406824  0.4978021  0.7577583

 Al 
  0.7517697  0.7388879  0.4973454

