32 
charge = 0 
 Al 
  0.0005396  0.9992513  0.0247129

 Al 
  0.9990409  0.2576617  0.2601975

 Al 
  0.2636676  0.0196079  0.2359462

 Al 
  0.2461351  0.2501770  0.9946092

 Al 
  0.5039528  0.0235248  0.9983986

 Al 
  0.4850354  0.2667306  0.2421093

 Al 
  0.7611826  0.0019492  0.2601418

 Al 
  0.7363027  0.2341790  0.9937701

 Al 
  0.0063970  0.4850824  0.0104190

 Al 
  0.9740124  0.7069341  0.2531496

 Al 
  0.2468442  0.5119833  0.2591456

 Al 
  0.2496003  0.7562460  0.0072113

 Al 
  0.0143916  0.0123905  0.4994926

 Al 
  0.9972588  0.2465732  0.7652344

 Al 
  0.2524256  0.0118435  0.7552992

 Al 
  0.2456438  0.2558017  0.5073585

 Al 
  0.0108448  0.4872209  0.5179125

 Al 
  0.9988454  0.7531657  0.7623744

 Al 
  0.2448777  0.5040543  0.7498280

 Al 
  0.2738404  0.7767054  0.4896664

 Al 
  0.4902740  0.5042758  0.9945263

 Al 
  0.5155945  0.7447874  0.2382939

 Al 
  0.7425437  0.4859636  0.2324687

 Al 
  0.7473739  0.7475274  0.9962477

 Al 
  0.5205435  0.9834204  0.4953257

 Al 
  0.4957675  0.2430177  0.7306247

 Al 
  0.7391590  0.9955732  0.7486473

 Al 
  0.7457428  0.2464977  0.4851629

 Al 
  0.5091307  0.4984964  0.4914064

 Al 
  0.4972625  0.7546656  0.7468529

 Al 
  0.7373261  0.4961128  0.7540122

 Al 
  0.7484444  0.7385810  0.4994518

