32 
charge = 0 
 Al 
  0.0002314  0.9993651  0.0251832

 Al 
  0.9984382  0.2570467  0.2613064

 Al 
  0.2633941  0.0198530  0.2352879

 Al 
  0.2476313  0.2497042  0.9942292

 Al 
  0.5037362  0.0222984  0.9993354

 Al 
  0.4862556  0.2667541  0.2405376

 Al 
  0.7609636  0.0033451  0.2597371

 Al 
  0.7359462  0.2360712  0.9944495

 Al 
  0.0059539  0.4840849  0.0110490

 Al 
  0.9738330  0.7088956  0.2546384

 Al 
  0.2489060  0.5123930  0.2602025

 Al 
  0.2506621  0.7562633  0.0080776

 Al 
  0.0146639  0.0112767  0.4970261

 Al 
  0.9972130  0.2476189  0.7651428

 Al 
  0.2535530  0.0134028  0.7555715

 Al 
  0.2441476  0.2560579  0.5075949

 Al 
  0.0094179  0.4878892  0.5186934

 Al 
  0.9982080  0.7518700  0.7621393

 Al 
  0.2449644  0.5045357  0.7497797

 Al 
  0.2742117  0.7760618  0.4885711

 Al 
  0.4911712  0.5033328  0.9959680

 Al 
  0.5146156  0.7434756  0.2367742

 Al 
  0.7414138  0.4853559  0.2335751

 Al 
  0.7463009  0.7476882  0.9955460

 Al 
  0.5203530  0.9840973  0.4944223

 Al 
  0.4969952  0.2409361  0.7312447

 Al 
  0.7404732  0.9972167  0.7493330

 Al 
  0.7449866  0.2461425  0.4828981

 Al 
  0.5071779  0.4972031  0.4919360

 Al 
  0.4956524  0.7541743  0.7456314

 Al 
  0.7387196  0.4968739  0.7556210

 Al 
  0.7498094  0.7387134  0.4984951

