32 
charge = 0 
 Al 
  0.0000149  0.9994332  0.0254096

 Al 
  0.9980756  0.2566123  0.2619784

 Al 
  0.2631850  0.0199433  0.2349785

 Al 
  0.2486412  0.2494716  0.9939780

 Al 
  0.5035580  0.0212786  0.9999604

 Al 
  0.4871529  0.2666960  0.2395364

 Al 
  0.7607495  0.0042300  0.2593795

 Al 
  0.7358151  0.2374796  0.9949421

 Al 
  0.0056148  0.4834711  0.0113819

 Al 
  0.9738466  0.7104141  0.2556544

 Al 
  0.2503143  0.5126380  0.2608844

 Al 
  0.2513687  0.7562645  0.0086555

 Al 
  0.0147988  0.0104277  0.4954086

 Al 
  0.9971239  0.2482798  0.7650389

 Al 
  0.2542795  0.0143731  0.7557237

 Al 
  0.2432454  0.2561903  0.5077014

 Al 
  0.0083300  0.4884214  0.5191785

 Al 
  0.9977811  0.7509900  0.7619363

 Al 
  0.2450993  0.5048710  0.7497797

 Al 
  0.2743119  0.7755124  0.4878360

 Al 
  0.4917851  0.5026509  0.9969024

 Al 
  0.5139127  0.7426476  0.2357816

 Al 
  0.7406044  0.4849166  0.2343560

 Al 
  0.7455695  0.7478182  0.9950522

 Al 
  0.5201772  0.9847396  0.4937825

 Al 
  0.4978726  0.2396404  0.7317101

 Al 
  0.7414534  0.9983243  0.7497785

 Al 
  0.7444619  0.2459495  0.4814960

 Al 
  0.5058165  0.4963541  0.4923383

 Al 
  0.4945795  0.7538080  0.7448691

 Al 
  0.7396874  0.4973504  0.7566915

 Al 
  0.7507760  0.7388001  0.4979011

