32 
charge = 0 
 Al 
  0.9996720  0.9995260  0.0256151

 Al 
  0.9975954  0.2559391  0.2628756

 Al 
  0.2628335  0.0199780  0.2347149

 Al 
  0.2501770  0.2492562  0.9936030

 Al 
  0.5032597  0.0194458  0.0008948

 Al 
  0.4885996  0.2664732  0.2381206

 Al 
  0.7603176  0.0054799  0.2586988

 Al 
  0.7357755  0.2397951  0.9957391

 Al 
  0.0050394  0.4826345  0.0117754

 Al 
  0.9740656  0.7129944  0.2571902

 Al 
  0.2524553  0.5129536  0.2618657

 Al 
  0.2524194  0.7562472  0.0095131

 Al 
  0.0149337  0.0089884  0.4930201

 Al 
  0.9968999  0.2492141  0.7648198

 Al 
  0.2553203  0.0157109  0.7559007

 Al 
  0.2420412  0.2563314  0.5077855

 Al 
  0.0064947  0.4893421  0.5198418

 Al 
  0.9971437  0.7496547  0.7615774

 Al 
  0.2454210  0.5053871  0.7498329

 Al 
  0.2742463  0.7745149  0.4867210

 Al 
  0.4927182  0.5015507  0.9982427

 Al 
  0.5127914  0.7414856  0.2343424

 Al 
  0.7393409  0.4842409  0.2356022

 Al 
  0.7444557  0.7480533  0.9942763

 Al 
  0.5198443  0.9859722  0.4927603

 Al 
  0.4992847  0.2378533  0.7324786

 Al 
  0.7430758  0.9999963  0.7504245

 Al 
  0.7436389  0.2457316  0.4795654

 Al 
  0.5036941  0.4950980  0.4930276

 Al 
  0.4929830  0.7532040  0.7437998

 Al 
  0.7411886  0.4980187  0.7582892

 Al 
  0.7522734  0.7389325  0.4970843

