32 
charge = 0 
 Al 
  0.0003354  0.9993292  0.0250433

 Al 
  0.9986325  0.2572571  0.2609500

 Al 
  0.2634907  0.0197861  0.2354822

 Al 
  0.2471289  0.2498465  0.9943555

 Al 
  0.5038166  0.0227476  0.9990236

 Al 
  0.4858311  0.2667603  0.2410524

 Al 
  0.7610502  0.0028885  0.2598894

 Al 
  0.7360440  0.2354104  0.9942144

 Al 
  0.0061111  0.4844080  0.0108584

 Al 
  0.9738664  0.7081989  0.2541359

 Al 
  0.2482117  0.5122605  0.2598547

 Al 
  0.2503082  0.7562596  0.0077880

 Al 
  0.0145822  0.0116690  0.4978442

 Al 
  0.9972402  0.2472774  0.7651824

 Al 
  0.2531818  0.0128966  0.7554861

 Al 
  0.2446277  0.2559799  0.5075256

 Al 
  0.0099203  0.4876491  0.5184397

 Al 
  0.9984209  0.7523056  0.7622271

 Al 
  0.2449210  0.5043723  0.7497896

 Al 
  0.2741176  0.7763007  0.4889374

 Al 
  0.4908680  0.5036570  0.9954916

 Al 
  0.5149522  0.7439038  0.2372779

 Al 
  0.7418036  0.4855663  0.2331989

 Al 
  0.7466623  0.7476301  0.9957849

 Al 
  0.5204260  0.9838325  0.4947305

 Al 
  0.4965744  0.2416118  0.7310269

 Al 
  0.7400141  0.9966660  0.7491065

 Al 
  0.7452428  0.2462527  0.4836332

 Al 
  0.5078412  0.4976313  0.4917504

 Al 
  0.4961895  0.7543463  0.7460274

 Al 
  0.7382469  0.4966264  0.7550851

 Al 
  0.7493416  0.7386701  0.4988058

