32 
charge = 0 
 Al 
  0.0013267  0.9988540  0.0227551

 Al 
  0.0009393  0.2589810  0.2566581

 Al 
  0.2640946  0.0182182  0.2387877

 Al 
  0.2422603  0.2520605  0.9956524

 Al 
  0.5040196  0.0250804  0.9959123

 Al 
  0.4826531  0.2661762  0.2466314

 Al 
  0.7612618  0.9978454  0.2605465

 Al 
  0.7382456  0.2304985  0.9923395

 Al 
  0.0071642  0.4881640  0.0076642

 Al 
  0.9756868  0.7036904  0.2495471

 Al 
  0.2417999  0.5107383  0.2560987

 Al 
  0.2467638  0.7561334  0.0049552

 Al 
  0.0132122  0.0145141  0.5063239

 Al 
  0.9968281  0.2435115  0.7650686

 Al 
  0.2492859  0.0071370  0.7543946

 Al 
  0.2504356  0.2547485  0.5062868

 Al 
  0.0135253  0.4862247  0.5155586

 Al 
  0.0005111  0.7564378  0.7625093

 Al 
  0.2452242  0.5029454  0.7501349

 Al 
  0.2715101  0.7772796  0.4926217

 Al 
  0.4880885  0.5063363  0.9906552

 Al 
  0.5176910  0.7486449  0.2424360

 Al 
  0.7448072  0.4870563  0.2297659

 Al 
  0.7500854  0.7472650  0.9978900

 Al 
  0.5205745  0.9833795  0.4974642

 Al 
  0.4929372  0.2493070  0.7294936

 Al 
  0.7366021  0.9913569  0.7467415

 Al 
  0.7476808  0.2477637  0.4921081

 Al 
  0.5137270  0.5021051  0.4902752

 Al 
  0.5014603  0.7555888  0.7506423

 Al 
  0.7340404  0.4937949  0.7497141

 Al 
  0.7455596  0.7381615  0.5023675

