32 
charge = 0 
 Al 
  0.0011287  0.9989691  0.0233380

 Al 
  0.0004307  0.2587050  0.2576221

 Al 
  0.2640340  0.0186761  0.2379325

 Al 
  0.2432132  0.2515123  0.9953851

 Al 
  0.5040914  0.0249196  0.9965336

 Al 
  0.4831209  0.2663692  0.2454619

 Al 
  0.7613014  0.9989246  0.2605279

 Al 
  0.7376169  0.2312274  0.9926452

 Al 
  0.0070343  0.4873348  0.0085293

 Al 
  0.9751002  0.7042151  0.2503874

 Al 
  0.2429843  0.5110650  0.2568957

 Al 
  0.2474741  0.7561680  0.0055084

 Al 
  0.0135748  0.0140909  0.5045765

 Al 
  0.9970125  0.2443122  0.7651688

 Al 
  0.2500829  0.0083857  0.7546371

 Al 
  0.2491300  0.2550641  0.5066172

 Al 
  0.0130031  0.4863658  0.5161811

 Al 
  0.0000990  0.7556470  0.7625526

 Al 
  0.2450683  0.5031941  0.7500433

 Al 
  0.2722823  0.7773006  0.4918667

 Al 
  0.4886033  0.5058809  0.9916093

 Al 
  0.5172430  0.7476338  0.2413940

 Al 
  0.7443629  0.4868719  0.2304193

 Al 
  0.7494270  0.7473108  0.9975088

 Al 
  0.5206401  0.9831407  0.4969618

 Al 
  0.4935919  0.2476375  0.7296965

 Al 
  0.7371071  0.9923853  0.7472254

 Al 
  0.7471944  0.2474085  0.4902468

 Al 
  0.5126689  0.5011744  0.4905364

 Al 
  0.5004319  0.7554131  0.7496151

 Al 
  0.7347953  0.4944161  0.7507896

 Al 
  0.7461537  0.7382766  0.5015903

