32 
charge = 0 
 Al 
  0.0014257  0.9987909  0.0224407

 Al 
  0.0012004  0.2591023  0.2561556

 Al 
  0.2641119  0.0179583  0.2392518

 Al 
  0.2417888  0.2523514  0.9957898

 Al 
  0.5039577  0.0251052  0.9956029

 Al 
  0.4824551  0.2660685  0.2472241

 Al 
  0.7612284  0.9972935  0.2605366

 Al 
  0.7385971  0.2301829  0.9921984

 Al 
  0.0072113  0.4885934  0.0071803

 Al 
  0.9760235  0.7035048  0.2491448

 Al 
  0.2412319  0.5105725  0.2556891

 Al 
  0.2464086  0.7561148  0.0046817

 Al 
  0.0130117  0.0146998  0.5072088

 Al 
  0.9967167  0.2431031  0.7650030

 Al 
  0.2488862  0.0064935  0.7542708

 Al 
  0.2511150  0.2545765  0.5061049

 Al 
  0.0137506  0.4861814  0.5152381

 Al 
  0.0007153  0.7568264  0.7624647

 Al 
  0.2453171  0.5028291  0.7501819

 Al 
  0.2710732  0.7772251  0.4930053

 Al 
  0.4878397  0.5065479  0.9901849

 Al 
  0.5178939  0.7491609  0.2429583

 Al 
  0.7449965  0.4871219  0.2294428

 Al 
  0.7504109  0.7472464  0.9980731

 Al 
  0.5205200  0.9835639  0.4977093

 Al 
  0.4926204  0.2501646  0.7294156

 Al 
  0.7363843  0.9908507  0.7464977

 Al 
  0.7479271  0.2479494  0.4930709

 Al 
  0.5142307  0.5025778  0.4901478

 Al 
  0.5019665  0.7556643  0.7511782

 Al 
  0.7336827  0.4934731  0.7491770

 Al 
  0.7452997  0.7381033  0.5027684

