32 
charge = 0 
 Al 
  0.0016299  0.9986560  0.0217650

 Al 
  0.0017338  0.2593102  0.2551124

 Al 
  0.2641169  0.0173766  0.2402505

 Al 
  0.2408569  0.2529652  0.9960707

 Al 
  0.5037758  0.0250408  0.9949804

 Al 
  0.4821284  0.2658309  0.2484271

 Al 
  0.7611418  0.9961648  0.2604834

 Al 
  0.7393780  0.2296508  0.9919447

 Al 
  0.0072670  0.4894844  0.0060999

 Al 
  0.9767846  0.7032956  0.2483800

 Al 
  0.2401490  0.5102309  0.2548500

 Al 
  0.2457019  0.7560777  0.0041421

 Al 
  0.0125712  0.0150178  0.5089996

 Al 
  0.9964544  0.2422714  0.7648384

 Al 
  0.2480855  0.0051705  0.7540221

 Al 
  0.2525222  0.2542040  0.5057064

 Al 
  0.0141305  0.4861492  0.5145822

 Al 
  0.0011212  0.7575875  0.7623274

 Al 
  0.2455299  0.5026125  0.7502735

 Al 
  0.2700993  0.7770271  0.4937911

 Al 
  0.4873620  0.5069440  0.9892666

 Al 
  0.5182540  0.7502166  0.2440015

 Al 
  0.7453035  0.4871987  0.2287993

 Al 
  0.7510519  0.7472192  0.9984246

 Al 
  0.5203629  0.9840639  0.4981882

 Al 
  0.4920103  0.2519256  0.7293117

 Al 
  0.7360242  0.9898520  0.7460126

 Al 
  0.7484332  0.2483380  0.4950597

 Al 
  0.5151837  0.5035419  0.4898891

 Al 
  0.5029615  0.7557856  0.7522969

 Al 
  0.7330107  0.4928073  0.7481065

 Al 
  0.7448629  0.7379833  0.5035951

