32 
charge = 0 
 Al 
  0.0012264  0.9989122  0.0230546

 Al 
  0.0006831  0.2588486  0.2571469

 Al 
  0.2640686  0.0184570  0.2383483

 Al 
  0.2427355  0.2517809  0.9955175

 Al 
  0.5040642  0.0250186  0.9962230

 Al 
  0.4828758  0.2662777  0.2460435

 Al 
  0.7612853  0.9983899  0.2605440

 Al 
  0.7379189  0.2308475  0.9924880

 Al 
  0.0071048  0.4877444  0.0081135

 Al 
  0.9753787  0.7039280  0.2499616

 Al 
  0.2423840  0.5109029  0.2564997

 Al 
  0.2471190  0.7561507  0.0052299

 Al 
  0.0134003  0.0143112  0.5054465

 Al 
  0.9969271  0.2439149  0.7651243

 Al 
  0.2496844  0.0077682  0.7545171

 Al 
  0.2497735  0.2549106  0.5064576

 Al 
  0.0132753  0.4862866  0.5158730

 Al 
  0.0003057  0.7560443  0.7625377

 Al 
  0.2451413  0.5030667  0.7500879

 Al 
  0.2719123  0.7773043  0.4922417

 Al 
  0.4883422  0.5061136  0.9911292

 Al 
  0.5174744  0.7481362  0.2419150

 Al 
  0.7445956  0.4869722  0.2300913

 Al 
  0.7497574  0.7472860  0.9977006

 Al 
  0.5206141  0.9832385  0.4972155

 Al 
  0.4932602  0.2484642  0.7295876

 Al 
  0.7368435  0.9918692  0.7469841

 Al 
  0.7474358  0.2475830  0.4911675

 Al 
  0.5132060  0.5016361  0.4904052

 Al 
  0.5009480  0.7555059  0.7501213

 Al 
  0.7344117  0.4941092  0.7502525

 Al 
  0.7458443  0.7382196  0.5019751

