32 
charge = 0 
 Al 
  0.0007376  0.9991659  0.0243181

 Al 
  0.9994790  0.2580417  0.2593919

 Al 
  0.2638186  0.0193654  0.2365106

 Al 
  0.2451500  0.2505668  0.9948641

 Al 
  0.5040493  0.0241436  0.9977761

 Al 
  0.4843151  0.2666514  0.2431984

 Al 
  0.7612668  0.0009752  0.2603299

 Al 
  0.7366492  0.2330689  0.9933605

 Al 
  0.0066482  0.4857953  0.0098931

 Al 
  0.9742649  0.7058450  0.2521930

 Al 
  0.2455138  0.5116888  0.2584167

 Al 
  0.2488911  0.7562249  0.0066370

 Al 
  0.0141614  0.0130315  0.5011633

 Al 
  0.9972266  0.2458443  0.7652505

 Al 
  0.2516559  0.0107396  0.7550926

 Al 
  0.2467328  0.2555901  0.5071519

 Al 
  0.0116653  0.4868645  0.5173593

 Al 
  0.9992661  0.7540097  0.7624808

 Al 
  0.2448901  0.5037511  0.7498849

 Al 
  0.2734444  0.7770098  0.4903953

 Al 
  0.4896973  0.5048512  0.9935523

 Al 
  0.5161923  0.7457044  0.2393211

 Al 
  0.7432231  0.4863187  0.2317658

 Al 
  0.7480719  0.7474407  0.9966883

 Al 
  0.5206203  0.9831642  0.4958950

 Al 
  0.4950040  0.2444916  0.7302658

 Al 
  0.7383892  0.9944953  0.7481795

 Al 
  0.7462316  0.2467737  0.4867754

 Al 
  0.5103671  0.4993726  0.4910945

 Al 
  0.4983293  0.7549502  0.7477241

 Al 
  0.7364425  0.4955732  0.7529392

 Al 
  0.7476066  0.7384857  0.5001324

