32 
charge = 0 
 Al 
  0.0021670  0.9982427  0.0198233

 Al 
  0.0031013  0.2595837  0.2522957

 Al 
  0.2639374  0.0155314  0.2431476

 Al 
  0.2386318  0.2546545  0.9968145

 Al 
  0.5029541  0.0242290  0.9934323

 Al 
  0.4817620  0.2651230  0.2514950

 Al 
  0.7608274  0.9932182  0.2601616

 Al 
  0.7417752  0.2289095  0.9914583

 Al 
  0.0071420  0.4918952  0.0026806

 Al 
  0.9791891  0.7037869  0.2467353

 Al 
  0.2378385  0.5093201  0.2526286

 Al 
  0.2439706  0.7559836  0.0028365

 Al 
  0.0112185  0.0154992  0.5135600

 Al 
  0.9955708  0.2401453  0.7642344

 Al 
  0.2461227  0.0016645  0.7534157

 Al 
  0.2562831  0.2531187  0.5045084

 Al 
  0.0146701  0.4863757  0.5128583

 Al 
  0.0020940  0.7593832  0.7616616

 Al 
  0.2461895  0.5021781  0.7504542

 Al 
  0.2670586  0.7759814  0.4958863

 Al 
  0.4862878  0.5077459  0.9871454

 Al 
  0.5188592  0.7529788  0.2465695

 Al 
  0.7456438  0.4870427  0.2272115

 Al 
  0.7525939  0.7472056  0.9992030

 Al 
  0.5196537  0.9860923  0.4993206

 Al 
  0.4906131  0.2565640  0.7294020

 Al 
  0.7356010  0.9874759  0.7448295

 Al 
  0.7497970  0.2493849  0.5003737

 Al 
  0.5171836  0.5060381  0.4892010

 Al 
  0.5052881  0.7559329  0.7553723

 Al 
  0.7316432  0.4910153  0.7454854

 Al 
  0.7443357  0.7377011  0.5058005

