32 
charge = 0 
 Al 
  0.0025048  0.9979395  0.0185053

 Al 
  0.0039095  0.2595540  0.2505037

 Al 
  0.2636775  0.0141552  0.2451265

 Al 
  0.2374140  0.2557349  0.9972873

 Al 
  0.5021954  0.0233095  0.9925202

 Al 
  0.4818747  0.2646268  0.2533290

 Al 
  0.7606022  0.9914101  0.2598621

 Al 
  0.7434892  0.2288736  0.9912702

 Al 
  0.0068511  0.4934570  0.0001089

 Al 
  0.9809490  0.7048253  0.2459668

 Al 
  0.2367964  0.5087236  0.2512264

 Al 
  0.2429929  0.7559353  0.0020952

 Al 
  0.0102297  0.0155574  0.5162826

 Al 
  0.9949000  0.2388855  0.7637407

 Al 
  0.2450200  0.9994617  0.7530927

 Al 
  0.2586320  0.2523811  0.5036520

 Al 
  0.0147134  0.4867148  0.5117878

 Al 
  0.0026286  0.7603559  0.7610168

 Al 
  0.2466400  0.5019974  0.7504925

 Al 
  0.2648322  0.7749616  0.4972402

 Al 
  0.4857420  0.5080862  0.9860465

 Al 
  0.5189867  0.7547003  0.2480397

 Al 
  0.7455547  0.4866974  0.2262834

 Al 
  0.7534639  0.7472378  0.9995867

 Al 
  0.5189793  0.9878273  0.4999567

 Al 
  0.4898693  0.2594550  0.7297448

 Al 
  0.7357099  0.9861653  0.7441736

 Al 
  0.7506980  0.2500421  0.5037313

 Al 
  0.5180610  0.5075640  0.4887369

 Al 
  0.5065170  0.7559168  0.7573858

 Al 
  0.7310975  0.4898780  0.7440065

 Al 
  0.7444693  0.7375724  0.5071989

