32 
charge = 0 
 Al 
  0.0023910  0.9980447  0.0189557

 Al 
  0.0036434  0.2595812  0.2511064

 Al 
  0.2637778  0.0146354  0.2444495

 Al 
  0.2378075  0.2553723  0.9971276

 Al 
  0.5024702  0.0236498  0.9928209

 Al 
  0.4818078  0.2647975  0.2527214

 Al 
  0.7606777  0.9920128  0.2599698

 Al 
  0.7428976  0.2288513  0.9913247

 Al 
  0.0069675  0.4929286  0.0010086

 Al 
  0.9803388  0.7044156  0.2462032

 Al 
  0.2371108  0.5089265  0.2516979

 Al 
  0.2433110  0.7559502  0.0023378

 Al 
  0.0105737  0.0155586  0.5153829

 Al 
  0.9951339  0.2393000  0.7639152

 Al 
  0.2453777  0.0002005  0.7531954

 Al 
  0.2578474  0.2526323  0.5039478

 Al 
  0.0147220  0.4865848  0.5121467

 Al 
  0.0024566  0.7600428  0.7612532

 Al 
  0.2464866  0.5020506  0.7504888

 Al 
  0.2656057  0.7753341  0.4967811

 Al 
  0.4859141  0.5079860  0.9863942

 Al 
  0.5189656  0.7541236  0.2475583

 Al 
  0.7456079  0.4868336  0.2265890

 Al 
  0.7531793  0.7472241  0.9994666

 Al 
  0.5192255  0.9872073  0.4997488

 Al 
  0.4901082  0.2584872  0.7296037

 Al 
  0.7356418  0.9865898  0.7443852

 Al 
  0.7503898  0.2498218  0.5026038

 Al 
  0.5177999  0.5070553  0.4888966

 Al 
  0.5061247  0.7559304  0.7567039

 Al 
  0.7312522  0.4902604  0.7444879

 Al 
  0.7443852  0.7376095  0.5067286

