32 
charge = 0 
 Al 
  0.0019479  0.9984221  0.0206425

 Al 
  0.0025519  0.2595193  0.2534540

 Al 
  0.2640439  0.0163383  0.2419224

 Al 
  0.2394993  0.2539552  0.9965101

 Al 
  0.5033476  0.0246646  0.9940498

 Al 
  0.4818289  0.2654250  0.2502624

 Al 
  0.7609660  0.9944136  0.2603200

 Al 
  0.7407418  0.2291038  0.9916279

 Al 
  0.0072410  0.4909002  0.0041768

 Al 
  0.9781434  0.7034095  0.2473430

 Al 
  0.2386862  0.5096951  0.2535382

 Al 
  0.2446525  0.7560195  0.0033501

 Al 
  0.0118039  0.0153631  0.5117284

 Al 
  0.9959618  0.2409992  0.7645092

 Al 
  0.2468962  0.0030989  0.7536520

 Al 
  0.2547436  0.2535778  0.5050220

 Al 
  0.0145253  0.4862321  0.5135600

 Al 
  0.0017140  0.7586852  0.7619870

 Al 
  0.2459074  0.5023328  0.7503948

 Al 
  0.2683790  0.7764962  0.4950238

 Al 
  0.4866950  0.5074576  0.9879585

 Al 
  0.5186711  0.7518551  0.2455534

 Al 
  0.7455819  0.4871677  0.2278427

 Al 
  0.7519888  0.7472006  0.9989109

 Al 
  0.5199965  0.9851480  0.4988775

 Al 
  0.4911490  0.2546730  0.7292993

 Al 
  0.7356839  0.9884028  0.7452935

 Al 
  0.7492315  0.2489543  0.4981956

 Al 
  0.5164559  0.5050282  0.4894869

 Al 
  0.5043909  0.7559007  0.7540951

 Al 
  0.7321296  0.4917529  0.7465187

 Al 
  0.7444421  0.7378075  0.5048958

