32 
charge = 0 
 Al 
  0.0026187  0.9978293  0.0180461

 Al 
  0.0041693  0.2595082  0.2499010

 Al 
  0.2635624  0.0136528  0.2458183

 Al 
  0.2370378  0.2560987  0.9974469

 Al 
  0.5019009  0.0229357  0.9922232

 Al 
  0.4819700  0.2644510  0.2539293

 Al 
  0.7605267  0.9908111  0.2597483

 Al 
  0.7440981  0.2289280  0.9912257

 Al 
  0.0067138  0.4939929  0.9991684

 Al 
  0.9815801  0.7052980  0.2457527

 Al 
  0.2365180  0.5085157  0.2507524

 Al 
  0.2426835  0.7559217  0.0018576

 Al 
  0.0098708  0.0155364  0.5171712

 Al 
  0.9946587  0.2384783  0.7635563

 Al 
  0.2446748  0.9987204  0.7529974

 Al 
  0.2594129  0.2521261  0.5033464

 Al 
  0.0146824  0.4868583  0.5114301

 Al 
  0.0027932  0.7606554  0.7607606

 Al 
  0.2467922  0.5019529  0.7504888

 Al 
  0.2640302  0.7745557  0.4977068

 Al 
  0.4855799  0.5081741  0.9857173

 Al 
  0.5189854  0.7552794  0.2485100

 Al 
  0.7454792  0.4865415  0.2259826

 Al 
  0.7537412  0.7472551  0.9996968

 Al 
  0.5187107  0.9884845  0.5001609

 Al 
  0.4896391  0.2604228  0.7299131

 Al 
  0.7358101  0.9857557  0.7439706

 Al 
  0.7510136  0.2502599  0.5048611

 Al 
  0.5182899  0.5080701  0.4885723

 Al 
  0.5068883  0.7558957  0.7580776

 Al 
  0.7309712  0.4894956  0.7435399

 Al 
  0.7445968  0.7375415  0.5076716

