32 
charge = 0 
 Al 
  0.0036149  0.9967044  0.0137741

 Al 
  0.0060418  0.2582855  0.2448146

 Al 
  0.2618732  0.0084328  0.2522907

 Al 
  0.2345973  0.2591134  0.9988206

 Al 
  0.4985149  0.0184830  0.9899102

 Al 
  0.4841122  0.2626689  0.2586085

 Al 
  0.7600082  0.9859363  0.2585825

 Al 
  0.7498738  0.2306792  0.9912009

 Al 
  0.0045579  0.4988961  0.9893594

 Al 
  0.9878249  0.7120984  0.2448344

 Al 
  0.2357953  0.5064972  0.2466054

 Al 
  0.2405351  0.7558314  0.0000879

 Al 
  0.0061804  0.0144869  0.5239580

 Al 
  0.9923506  0.2354846  0.7616257

 Al 
  0.2424410  0.9925004  0.7525679

 Al 
  0.2656774  0.2498503  0.5003676

 Al 
  0.0135228  0.4886813  0.5083672

 Al 
  0.0038327  0.7624672  0.7576308

 Al 
  0.2480001  0.5019479  0.7498874

 Al 
  0.2560455  0.7696129  0.5019776

 Al 
  0.4846592  0.5083288  0.9838758

 Al 
  0.5179236  0.7602866  0.2520011

 Al 
  0.7440250  0.4844141  0.2236399

 Al 
  0.7558240  0.7475199  0.0002636

 Al 
  0.5154324  0.9956302  0.5017747

 Al 
  0.4880340  0.2685498  0.7327113

 Al 
  0.7380724  0.9829711  0.7427281

 Al 
  0.7540394  0.2519442  0.5144250

 Al 
  0.5186365  0.5122853  0.4869190

 Al 
  0.5090924  0.7553636  0.7642184

 Al 
  0.7313153  0.4863905  0.7403903

 Al 
  0.7475459  0.7376578  0.5117804

