32 
charge = 0 
 Al 
  0.0035122  0.9968343  0.0142406

 Al 
  0.0058908  0.2584872  0.2453183

 Al 
  0.2621170  0.0090552  0.2515816

 Al 
  0.2347693  0.2588201  0.9986845

 Al 
  0.4989345  0.0190436  0.9901243

 Al 
  0.4837669  0.2628806  0.2581791

 Al 
  0.7600416  0.9864041  0.2587137

 Al 
  0.7492414  0.2303945  0.9911725

 Al 
  0.0048735  0.4983615  0.9905227

 Al 
  0.9871120  0.7111529  0.2448480

 Al 
  0.2357136  0.5067286  0.2470385

 Al 
  0.2407047  0.7558413  0.0002438

 Al 
  0.0066160  0.0146725  0.5233553

 Al 
  0.9925969  0.2357359  0.7618521

 Al 
  0.2425920  0.9931130  0.7525729

 Al 
  0.2650945  0.2500854  0.5006992

 Al 
  0.0137171  0.4884461  0.5086815

 Al 
  0.0037647  0.7623620  0.7580367

 Al 
  0.2478937  0.5019120  0.7500099

 Al 
  0.2569588  0.7702589  0.5015148

 Al 
  0.4847099  0.5083684  0.9839699

 Al 
  0.5181340  0.7597693  0.2516930

 Al 
  0.7442342  0.4846963  0.2238553

 Al 
  0.7556371  0.7474828  0.0002401

 Al 
  0.5158594  0.9947701  0.5016150

 Al 
  0.4881689  0.2677417  0.7322930

 Al 
  0.7377160  0.9831852  0.7428023

 Al 
  0.7536978  0.2517982  0.5134709

 Al 
  0.5187553  0.5118620  0.4871095

 Al 
  0.5089600  0.7554490  0.7635798

 Al 
  0.7311408  0.4866789  0.7406242

 Al 
  0.7470756  0.7376058  0.5113583

