32 
charge = 0 
 Al 
  0.0034070  0.9969655  0.0147121

 Al 
  0.0057225  0.2586753  0.2458430

 Al 
  0.2623472  0.0096716  0.2508638

 Al 
  0.2349686  0.2585132  0.9985409

 Al 
  0.4993478  0.0195931  0.9903520

 Al 
  0.4834476  0.2630897  0.2577224

 Al 
  0.7600824  0.9868955  0.2588473

 Al 
  0.7486003  0.2301272  0.9911514

 Al 
  0.0051718  0.4978219  0.9916774

 Al 
  0.9863980  0.7102458  0.2448827

 Al 
  0.2356715  0.5069588  0.2474816

 Al 
  0.2408940  0.7558512  0.0004109

 Al 
  0.0070492  0.0148421  0.5227080

 Al 
  0.9928494  0.2360118  0.7620774

 Al 
  0.2427702  0.9937528  0.7525890

 Al 
  0.2644758  0.2503292  0.5010358

 Al 
  0.0138978  0.4882172  0.5090045

 Al 
  0.0036842  0.7622296  0.7584303

 Al 
  0.2477786  0.5018848  0.7501188

 Al 
  0.2578746  0.7708851  0.5010445

 Al 
  0.4847743  0.5083944  0.9840936

 Al 
  0.5183221  0.7592384  0.2513626

 Al 
  0.7444359  0.4849710  0.2240842

 Al 
  0.7554366  0.7474469  0.0002067

 Al 
  0.5162727  0.9939186  0.5014504

 Al 
  0.4883137  0.2669014  0.7318982

 Al 
  0.7373818  0.9834241  0.7428939

 Al 
  0.7533550  0.2516398  0.5124796

 Al 
  0.5188345  0.5114264  0.4873014

 Al 
  0.5087991  0.7555294  0.7629239

 Al 
  0.7309997  0.4869870  0.7408903

 Al 
  0.7466351  0.7375637  0.5109240

