32 
charge = 0 
 Al 
  0.0031880  0.9972229  0.0156688

 Al 
  0.0053401  0.2590020  0.2469457

 Al 
  0.2627667  0.0108769  0.2494122

 Al 
  0.2354438  0.2578647  0.9982414

 Al 
  0.5001473  0.0206537  0.9908408

 Al 
  0.4828845  0.2634981  0.2567348

 Al 
  0.7601851  0.9879400  0.2591134

 Al 
  0.7473009  0.2296545  0.9911304

 Al 
  0.0057138  0.4967291  0.9939434

 Al 
  0.9849772  0.7085652  0.2450176

 Al 
  0.2357099  0.5074179  0.2483924

 Al 
  0.2413259  0.7558685  0.0007784

 Al 
  0.0078994  0.0151342  0.5212873

 Al 
  0.9933679  0.2366281  0.7625241

 Al 
  0.2432045  0.9951005  0.7526533

 Al 
  0.2631417  0.2508316  0.5017115

 Al 
  0.0142134  0.4877778  0.5096728

 Al 
  0.0034850  0.7618880  0.7591802

 Al 
  0.2475236  0.5018576  0.7502908

 Al 
  0.2596963  0.7720695  0.5000928

 Al 
  0.4849413  0.5084030  0.9844253

 Al 
  0.5186303  0.7581419  0.2506386

 Al 
  0.7448097  0.4854908  0.2245780

 Al 
  0.7550035  0.7473813  0.0001101

 Al 
  0.5170586  0.9922516  0.5011076

 Al 
  0.4886392  0.2651403  0.7311891

 Al 
  0.7367878  0.9839785  0.7431291

 Al 
  0.7526707  0.2512858  0.5104017

 Al 
  0.5188753  0.5105156  0.4876801

 Al 
  0.5083894  0.7556705  0.7615687

 Al 
  0.7308215  0.4876516  0.7415165

 Al 
  0.7458566  0.7375093  0.5100230

