32 
charge = 0 
 Al 
  0.0032993  0.9970942  0.0151886

 Al 
  0.0055393  0.2588473  0.2463863

 Al 
  0.2625637  0.0102792  0.2501398

 Al 
  0.2351926  0.2581951  0.9983936

 Al 
  0.4997525  0.0201314  0.9905908

 Al 
  0.4831531  0.2632964  0.2572410

 Al 
  0.7601307  0.9874090  0.2589810

 Al 
  0.7479518  0.2298797  0.9911366

 Al 
  0.0054527  0.4972774  0.9928184

 Al 
  0.9856864  0.7093820  0.2449384

 Al 
  0.2356703  0.5071890  0.2479333

 Al 
  0.2411007  0.7558599  0.0005891

 Al 
  0.0074774  0.0149968  0.5220175

 Al 
  0.9931068  0.2363088  0.7623026

 Al 
  0.2429756  0.9944161  0.7526150

 Al 
  0.2638236  0.2505779  0.5013737

 Al 
  0.0140637  0.4879932  0.5093349

 Al 
  0.0035902  0.7620712  0.7588127

 Al 
  0.2476548  0.5018662  0.7502116

 Al 
  0.2587879  0.7714890  0.5005705

 Al 
  0.4848510  0.5084055  0.9842446

 Al 
  0.5184879  0.7586951  0.2510111

 Al 
  0.7446290  0.4852371  0.2243255

 Al 
  0.7552262  0.7474135  0.0001634

 Al 
  0.5166737  0.9930771  0.5012809

 Al 
  0.4884709  0.2660339  0.7315306

 Al 
  0.7370724  0.9836889  0.7430041

 Al 
  0.7530122  0.2514677  0.5114549

 Al 
  0.5188753  0.5109772  0.4874907

 Al 
  0.5086085  0.7556024  0.7622519

 Al 
  0.7308933  0.4873113  0.7411886

 Al 
  0.7462279  0.7375316  0.5104784

