32 
charge = 0 
 Al 
  0.0043463  0.9955906  0.0099413

 Al 
  0.0066024  0.2559168  0.2413692

 Al 
  0.2591456  0.0027313  0.2580516

 Al 
  0.2342384  0.2610527  0.9996819

 Al 
  0.4947045  0.0133545  0.9885662

 Al 
  0.4881565  0.2606381  0.2610960

 Al 
  0.7600936  0.9829055  0.2575442

 Al 
  0.7548512  0.2337310  0.9917083

 Al 
  0.0011064  0.5032548  0.9790320

 Al 
  0.9939842  0.7218318  0.2454977

 Al 
  0.2380724  0.5045097  0.2432256

 Al 
  0.2399102  0.7556396  0.9992265

 Al 
  0.0023217  0.0122729  0.5271336

 Al 
  0.9907121  0.2343671  0.7597025

 Al 
  0.2423259  0.9884288  0.7529578

 Al 
  0.2690721  0.2481635  0.4977798

 Al 
  0.0113435  0.4908594  0.5059341

 Al 
  0.0038550  0.7621949  0.7537374

 Al 
  0.2485063  0.5026657  0.7481300

 Al 
  0.2483194  0.7631454  0.5057027

 Al 
  0.4847668  0.5074316  0.9843164

 Al 
  0.5151416  0.7641590  0.2538476

 Al 
  0.7420635  0.4818177  0.2223615

 Al 
  0.7569452  0.7479036  0.0001250

 Al 
  0.5113014  0.0032486  0.5031484

 Al 
  0.4872816  0.2741325  0.7374053

 Al 
  0.7419088  0.9822521  0.7429335

 Al 
  0.7568870  0.2525679  0.5210138

 Al 
  0.5160017  0.5154534  0.4853225

 Al 
  0.5090392  0.7543711  0.7688332

 Al 
  0.7342372  0.4848671  0.7398149

 Al 
  0.7527585  0.7385426  0.5148569

