32 
charge = 0 
 Al 
  0.0038996  0.9963158  0.0124177

 Al 
  0.0063920  0.2575937  0.2434384

 Al 
  0.2610663  0.0065405  0.2543488

 Al 
  0.2342446  0.2599030  0.9991882

 Al 
  0.4972353  0.0167677  0.9893433

 Al 
  0.4852841  0.2620180  0.2597186

 Al 
  0.7599574  0.9846815  0.2582038

 Al 
  0.7516930  0.2316210  0.9913234

 Al 
  0.0035172  0.5004455  0.9858559

 Al 
  0.9899411  0.7151366  0.2449124

 Al 
  0.2362631  0.5058104  0.2453728

 Al 
  0.2401478  0.7557930  0.9996918

 Al 
  0.0048686  0.0138471  0.5254765

 Al 
  0.9916749  0.2348807  0.7609524

 Al 
  0.2421539  0.9908396  0.7526174

 Al 
  0.2671922  0.2491931  0.4994097

 Al 
  0.0128706  0.4894065  0.5074774

 Al 
  0.0039577  0.7626219  0.7563673

 Al 
  0.2482600  0.5021125  0.7494295

 Al 
  0.2533451  0.7675709  0.5033154

 Al 
  0.4845862  0.5081333  0.9837694

 Al 
  0.5171650  0.7617432  0.2527981

 Al 
  0.7433679  0.4835404  0.2230793

 Al 
  0.7563103  0.7476387  0.0002834

 Al 
  0.5140995  0.9982241  0.5022363

 Al 
  0.4876937  0.2707626  0.7341060

 Al 
  0.7392493  0.9824934  0.7426192

 Al 
  0.7550431  0.2522957  0.5170400

 Al 
  0.5180560  0.5134672  0.4863522

 Al 
  0.5093139  0.7550728  0.7660017

 Al 
  0.7320331  0.4856554  0.7398928

 Al 
  0.7491201  0.7378744  0.5129585

