32 
charge = 0 
 Al 
  0.0044032  0.9954792  0.0095577

 Al 
  0.0065752  0.2556062  0.2411131

 Al 
  0.2587879  0.0021001  0.2586097

 Al 
  0.2343226  0.2611876  0.9997290

 Al 
  0.4942948  0.0128038  0.9884832

 Al 
  0.4886949  0.2603943  0.2612160

 Al 
  0.7601468  0.9827063  0.2574489

 Al 
  0.7553067  0.2340948  0.9917863

 Al 
  0.0006708  0.5036817  0.9779380

 Al 
  0.9946315  0.7230013  0.2456401

 Al 
  0.2384684  0.5043055  0.2429075

 Al 
  0.2399374  0.7555987  0.9991894

 Al 
  0.0019170  0.0119796  0.5272313

 Al 
  0.9906156  0.2343708  0.7595119

 Al 
  0.2424472  0.9881491  0.7530395

 Al 
  0.2692342  0.2480335  0.4975533

 Al 
  0.0110675  0.4910945  0.5057039

 Al 
  0.0037956  0.7620328  0.7532981

 Al 
  0.2485137  0.5027833  0.7478677

 Al 
  0.2475447  0.7623744  0.5060603

 Al 
  0.4848374  0.5072806  0.9845008

 Al 
  0.5147456  0.7644943  0.2539590

 Al 
  0.7418606  0.4815504  0.2222947

 Al 
  0.7570096  0.7479506  0.0000792

 Al 
  0.5108287  0.0040456  0.5033092

 Al 
  0.4872432  0.2745520  0.7380105

 Al 
  0.7423717  0.9823004  0.7430573

 Al 
  0.7571655  0.2525556  0.5215088

 Al 
  0.5155599  0.5157418  0.4851728

 Al 
  0.5089092  0.7542399  0.7691995

 Al 
  0.7346914  0.4848312  0.7399151

 Al 
  0.7534033  0.7386788  0.5151094

