32 
charge = 0 
 Al 
  0.0044540  0.9953715  0.0091815

 Al 
  0.0065319  0.2552881  0.2408816

 Al 
  0.2584191  0.0014702  0.2591518

 Al 
  0.2344290  0.2613076  0.9997649

 Al 
  0.4938914  0.0122605  0.9884139

 Al 
  0.4892481  0.2601443  0.2613051

 Al 
  0.7602062  0.9825343  0.2573561

 Al 
  0.7557411  0.2344612  0.9918667

 Al 
  0.0002265  0.5040963  0.9768601

 Al 
  0.9952725  0.7241832  0.2457923

 Al 
  0.2388892  0.5041062  0.2425994

 Al 
  0.2399832  0.7555529  0.9991622

 Al 
  0.0015185  0.0116776  0.5272796

 Al 
  0.9905376  0.2343980  0.7593250

 Al 
  0.2425920  0.9879041  0.7531261

 Al 
  0.2693542  0.2479147  0.4973430

 Al 
  0.0107841  0.4913259  0.5054799

 Al 
  0.0037251  0.7618459  0.7528600

 Al 
  0.2485137  0.5029070  0.7475929

 Al 
  0.2467898  0.7615960  0.5064069

 Al 
  0.4849166  0.5071209  0.9847099

 Al 
  0.5143334  0.7648111  0.2540555

 Al 
  0.7416663  0.4812905  0.2222439

 Al 
  0.7570615  0.7479964  0.0000297

 Al 
  0.5103572  0.0048290  0.5034751

 Al 
  0.4872135  0.2749319  0.7386293

 Al 
  0.7428370  0.9823722  0.7432021

 Al 
  0.7574340  0.2525283  0.5219556

 Al 
  0.5150908  0.5160202  0.4850292

 Al 
  0.5087582  0.7541050  0.7695324

 Al 
  0.7351678  0.4848238  0.7400475

 Al 
  0.7540567  0.7388211  0.5153433

