32 
charge = 0 
 Al 
  0.0046582  0.9947960  0.0070355

 Al 
  0.0059353  0.2532437  0.2399770

 Al 
  0.2559799  0.9977056  0.2620687

 Al 
  0.2355057  0.2617061  0.9997574

 Al 
  0.4915895  0.0091753  0.9882840

 Al 
  0.4928754  0.2584860  0.2612136

 Al 
  0.7606975  0.9820578  0.2568734

 Al 
  0.7579179  0.2366529  0.9924175

 Al 
  0.9974222  0.5063351  0.9707391

 Al 
  0.9990075  0.7314836  0.2468838

 Al 
  0.2418432  0.5030011  0.2409398

 Al 
  0.2406218  0.7551421  0.9992080

 Al 
  0.9992872  0.0097161  0.5265680

 Al 
  0.9905401  0.2350589  0.7583078

 Al 
  0.2439384  0.9871343  0.7537189

 Al 
  0.2692008  0.2474655  0.4963826

 Al 
  0.0089624  0.4926402  0.5042226

 Al 
  0.0030877  0.7602408  0.7502785

 Al 
  0.2483503  0.5037721  0.7457081

 Al 
  0.2426674  0.7567559  0.5082521

 Al 
  0.4856133  0.5060084  0.9864784

 Al 
  0.5115526  0.7663383  0.2543339

 Al 
  0.7406972  0.4799800  0.2222551

 Al 
  0.7571444  0.7482835  0.9996832

 Al 
  0.5075429  0.0092174  0.5046173

 Al 
  0.4871999  0.2763972  0.7426080

 Al 
  0.7456116  0.9832818  0.7445201

 Al 
  0.7588238  0.2520482  0.5236820

 Al 
  0.5117989  0.5175053  0.4843609

 Al 
  0.5074378  0.7532127  0.7708480

 Al 
  0.7384461  0.4853720  0.7414286

 Al 
  0.7580442  0.7397864  0.5163470

