32 
charge = 0 
 Al 
  0.0047052  0.9944075  0.0053215

 Al 
  0.0050629  0.2513898  0.2398050

 Al 
  0.2536360  0.9945844  0.2641095

 Al 
  0.2369078  0.2616380  0.9994518

 Al 
  0.4898470  0.0068648  0.9885736

 Al 
  0.4962539  0.2568128  0.2603633

 Al 
  0.7612098  0.9823462  0.2565517

 Al 
  0.7591716  0.2384300  0.9929434

 Al 
  0.9949718  0.5078659  0.9661725

 Al 
  0.0020383  0.7377890  0.2479877

 Al 
  0.2447540  0.5022004  0.2397715

 Al 
  0.2415895  0.7545901  0.9994802

 Al 
  0.9976820  0.0078845  0.5247364

 Al 
  0.9912331  0.2362173  0.7575541

 Al 
  0.2455906  0.9873546  0.7542399

 Al 
  0.2679657  0.2474556  0.4959853

 Al 
  0.0072620  0.4936043  0.5032177

 Al 
  0.0023254  0.7583548  0.7482377

 Al 
  0.2480558  0.5045951  0.7438827

 Al 
  0.2397740  0.7525444  0.5094847

 Al 
  0.4864772  0.5049205  0.9885773

 Al 
  0.5088572  0.7671625  0.2542374

 Al 
  0.7402431  0.4793278  0.2227043

 Al 
  0.7569044  0.7485298  0.9993825

 Al 
  0.5052584  0.0124165  0.5058363

 Al 
  0.4873967  0.2765903  0.7462254

 Al 
  0.7478157  0.9846121  0.7462279

 Al 
  0.7596456  0.2512920  0.5239320

 Al 
  0.5085157  0.5185610  0.4841109

 Al 
  0.5058784  0.7523551  0.7710262

 Al 
  0.7416267  0.4865997  0.7432367

 Al 
  0.7613410  0.7407084  0.5166328

