32 
charge = 0 
 Al 
  0.0047040  0.9944780  0.0056631

 Al 
  0.0052609  0.2517685  0.2398000

 Al 
  0.2541273  0.9952069  0.2637270

 Al 
  0.2365960  0.2616801  0.9995334

 Al 
  0.4901812  0.0073053  0.9884845

 Al 
  0.4955559  0.2571729  0.2605873

 Al 
  0.7611046  0.9822410  0.2566111

 Al 
  0.7589624  0.2380810  0.9928345

 Al 
  0.9954643  0.5075850  0.9670400

 Al 
  0.0014368  0.7365168  0.2477551

 Al 
  0.2441463  0.5023514  0.2399906

 Al 
  0.2413668  0.7547176  0.9994109

 Al 
  0.9979815  0.0082644  0.5251881

 Al 
  0.9910400  0.2359450  0.7577001

 Al 
  0.2452280  0.9872519  0.7541384

 Al 
  0.2682912  0.2474296  0.4960373

 Al 
  0.0076160  0.4934236  0.5034206

 Al 
  0.0024925  0.7587657  0.7486337

 Al 
  0.2481226  0.5044268  0.7442614

 Al 
  0.2403124  0.7533959  0.5092619

 Al 
  0.4862829  0.5051470  0.9881144

 Al 
  0.5094216  0.7670276  0.2542783

 Al 
  0.7403025  0.4794193  0.2225806

 Al 
  0.7569749  0.7484790  0.9994394

 Al 
  0.5057089  0.0118125  0.5055703

 Al 
  0.4873422  0.2766249  0.7454841

 Al 
  0.7473875  0.9843065  0.7458418

 Al 
  0.7595082  0.2514653  0.5239654

 Al 
  0.5092050  0.5183617  0.4841357

 Al 
  0.5062200  0.7525345  0.7710584

 Al 
  0.7409658  0.4863002  0.7428358

 Al 
  0.7606913  0.7405166  0.5166192

