32 
charge = 0 
 Al 
  0.0046990  0.9945522  0.0060047

 Al 
  0.0054478  0.2521435  0.2398136

 Al 
  0.2546074  0.9958307  0.2633335

 Al 
  0.2362977  0.2617086  0.9996052

 Al 
  0.4905227  0.0077583  0.9884115

 Al 
  0.4948678  0.2575194  0.2607841

 Al 
  0.7610007  0.9821593  0.2566717

 Al 
  0.7587322  0.2377283  0.9927268

 Al 
  0.9959569  0.5072917  0.9679323

 Al 
  0.0008329  0.7352495  0.2475274

 Al 
  0.2435511  0.5025073  0.2402158

 Al 
  0.2411576  0.7548364  0.9993490

 Al 
  0.9982922  0.0086382  0.5255977

 Al 
  0.9908742  0.2356913  0.7578486

 Al 
  0.2448802  0.9871776  0.7540345

 Al 
  0.2685771  0.2474184  0.4961017

 Al 
  0.0079637  0.4932355  0.5036223

 Al 
  0.0026521  0.7591617  0.7490372

 Al 
  0.2481870  0.5042597  0.7446339

 Al 
  0.2408717  0.7542436  0.5090268

 Al 
  0.4860997  0.5053685  0.9876726

 Al 
  0.5099735  0.7668779  0.2543080

 Al 
  0.7403780  0.4795307  0.2224741

 Al 
  0.7570343  0.7484295  0.9994988

 Al 
  0.5061631  0.0111900  0.5053153

 Al 
  0.4872952  0.2766224  0.7447503

 Al 
  0.7469519  0.9840206  0.7454779

 Al 
  0.7593572  0.2516274  0.5239567

 Al 
  0.5098795  0.5181563  0.4841728

 Al 
  0.5065467  0.7527103  0.7710559

 Al 
  0.7403148  0.4860267  0.7424521

 Al 
  0.7600354  0.7403284  0.5165833

