32 
charge = 0 
 Al 
  0.0046099  0.9949743  0.0077335

 Al 
  0.0061940  0.2539491  0.2401886

 Al 
  0.2568375  0.9989580  0.2611566

 Al 
  0.2350676  0.2616331  0.9998032

 Al 
  0.4923333  0.0101691  0.9882716

 Al 
  0.4916106  0.2590738  0.2613596

 Al 
  0.7605119  0.9821135  0.2570219

 Al 
  0.7572744  0.2359264  0.9922232

 Al 
  0.9983813  0.5056359  0.9727093

 Al 
  0.9977786  0.7290134  0.2464890

 Al 
  0.2407826  0.5033513  0.2414608

 Al 
  0.2403421  0.7553067  0.9991560

 Al 
  0.9999975  0.0103992  0.5269912

 Al 
  0.9904460  0.2347470  0.7586295

 Al 
  0.2434050  0.9872618  0.7535110

 Al 
  0.2694149  0.2475632  0.4966437

 Al 
  0.0095948  0.4922194  0.5046285

 Al 
  0.0033377  0.7608633  0.7511274

 Al 
  0.2484320  0.5034639  0.7463777

 Al 
  0.2439632  0.7583981  0.5076803

 Al 
  0.4853398  0.5064069  0.9857940

 Al 
  0.5125377  0.7658977  0.2542943

 Al 
  0.7409769  0.4803636  0.2221895

 Al 
  0.7571605  0.7481870  0.9998045

 Al 
  0.5084748  0.0078164  0.5042028

 Al 
  0.4871739  0.2760618  0.7412331

 Al 
  0.7446946  0.9828907  0.7439929

 Al 
  0.7584055  0.2522647  0.5232847

 Al 
  0.5129820  0.5170412  0.4845441

 Al 
  0.5079513  0.7535258  0.7705423

 Al 
  0.7372791  0.4850762  0.7408618

 Al 
  0.7567076  0.7394461  0.5160896

