32 
charge = 0 
 Al 
  0.0046594  0.9941030  0.0036124

 Al 
  0.0039441  0.2494542  0.2401057

 Al 
  0.2510396  0.9915314  0.2658284

 Al 
  0.2386714  0.2612111  0.9988862

 Al 
  0.4883174  0.0048376  0.9892617

 Al 
  0.4998614  0.2547931  0.2588845

 Al 
  0.7617148  0.9832013  0.2563017

 Al 
  0.7599104  0.2401032  0.9935176

 Al 
  0.9925499  0.5090627  0.9622766

 Al 
  0.0049911  0.7441674  0.2492315

 Al 
  0.2479023  0.5015024  0.2388174

 Al 
  0.2428989  0.7538204  0.9998973

 Al 
  0.9963702  0.0058933  0.5218826

 Al 
  0.9926316  0.2378533  0.7568264

 Al 
  0.2475868  0.9882852  0.7547003

 Al 
  0.2657814  0.2477971  0.4959309

 Al 
  0.0053859  0.4944000  0.5021546

 Al 
  0.0014170  0.7561160  0.7463764

 Al 
  0.2476932  0.5054255  0.7419323

 Al 
  0.2374078  0.7482934  0.5103968

 Al 
  0.4876021  0.5037560  0.9911576

 Al 
  0.5058908  0.7676266  0.2539070

 Al 
  0.7402319  0.4792275  0.2235941

 Al 
  0.7563809  0.7487798  0.9991325

 Al 
  0.5030828  0.0151205  0.5073437

 Al 
  0.4877890  0.2758824  0.7500223

 Al 
  0.7498230  0.9864004  0.7484803

 Al 
  0.7601072  0.2502995  0.5231771

 Al 
  0.5048748  0.5194693  0.4841926

 Al 
  0.5039973  0.7513947  0.7703666

 Al 
  0.7450398  0.4884857  0.7454520

 Al 
  0.7644498  0.7417083  0.5163519

