32 
charge = 0 
 Al 
  0.0046409  0.9940523  0.0032684

 Al 
  0.0037003  0.2490644  0.2402171

 Al 
  0.2504987  0.9909410  0.2661366

 Al 
  0.2390575  0.2610824  0.9987463

 Al 
  0.4880427  0.0044713  0.9894498

 Al 
  0.5005965  0.2543451  0.2585243

 Al 
  0.7618051  0.9834352  0.2562596

 Al 
  0.7599946  0.2404200  0.9936365

 Al 
  0.9920846  0.5092594  0.9616021

 Al 
  0.0055628  0.7454297  0.2494938

 Al 
  0.2485409  0.5013749  0.2386577

 Al 
  0.2431946  0.7536409  0.9999913

 Al 
  0.9961499  0.0054799  0.5212032

 Al 
  0.9929979  0.2382258  0.7566791

 Al 
  0.2480137  0.9885488  0.7547770

 Al 
  0.2652393  0.2479073  0.4959569

 Al 
  0.0049911  0.4945362  0.5019269

 Al 
  0.0012239  0.7556433  0.7460361

 Al 
  0.2476202  0.5055826  0.7415400

 Al 
  0.2370056  0.7474568  0.5105329

 Al 
  0.4878583  0.5035233  0.9917195

 Al 
  0.5052757  0.7676786  0.2538191

 Al 
  0.7402913  0.4792844  0.2238268

 Al 
  0.7562435  0.7488305  0.9990929

 Al 
  0.5026657  0.0155933  0.5076778

 Al 
  0.4878905  0.2756361  0.7507896

 Al 
  0.7501918  0.9868063  0.7489901

 Al 
  0.7601517  0.2500817  0.5229135

 Al 
  0.5041186  0.5196302  0.4842520

 Al 
  0.5035914  0.7511918  0.7701389

 Al 
  0.7457279  0.4889325  0.7459222

 Al 
  0.7650314  0.7419150  0.5162207

