32 
charge = 0 
 Al 
  0.0045381  0.9938864  0.0018885

 Al 
  0.0026966  0.2475236  0.2408185

 Al 
  0.2483132  0.9887097  0.2672491

 Al 
  0.2406700  0.2604339  0.9981090

 Al 
  0.4870761  0.0031583  0.9903619

 Al 
  0.5035209  0.2524095  0.2569044

 Al 
  0.7621034  0.9845515  0.2561259

 Al 
  0.7601344  0.2416044  0.9941142

 Al 
  0.9903544  0.5098856  0.9593485

 Al 
  0.0077471  0.7503440  0.2505742

 Al 
  0.2510556  0.5009022  0.2381491

 Al 
  0.2444631  0.7528390  0.0003775

 Al 
  0.9954235  0.0038043  0.5181885

 Al 
  0.9947243  0.2398235  0.7560702

 Al 
  0.2497599  0.9898235  0.7550134

 Al 
  0.2627754  0.2484790  0.4961636

 Al 
  0.0033637  0.4949842  0.5009455

 Al 
  0.0004369  0.7537362  0.7448097

 Al 
  0.2473491  0.5061532  0.7400129

 Al 
  0.2356505  0.7442292  0.5109066

 Al 
  0.4889795  0.5026150  0.9940622

 Al 
  0.5027858  0.7677677  0.2534144

 Al 
  0.7407641  0.4797956  0.2249443

 Al 
  0.7555987  0.7490273  0.9989827

 Al 
  0.5010829  0.0172256  0.5091097

 Al 
  0.4883781  0.2743292  0.7538278

 Al 
  0.7515420  0.9885649  0.7511868

 Al 
  0.7601691  0.2491807  0.5215262

 Al 
  0.5010643  0.5201970  0.4846369

 Al 
  0.5019083  0.7503539  0.7689211

 Al 
  0.7484147  0.4909089  0.7478132

 Al 
  0.7671600  0.7427528  0.5154423

