32 
charge = 0 
 Al 
  0.0046755  0.9941575  0.0039552

 Al 
  0.0041830  0.2498441  0.2400104

 Al 
  0.2515754  0.9921303  0.2655091

 Al 
  0.2382951  0.2613249  0.9990186

 Al 
  0.4886020  0.0052163  0.9890921

 Al 
  0.4991288  0.2552275  0.2592260

 Al 
  0.7616195  0.9829872  0.2563450

 Al 
  0.7598040  0.2397802  0.9934001

 Al 
  0.9930239  0.5088523  0.9629895

 Al 
  0.0044107  0.7428964  0.2489728

 Al 
  0.2472637  0.5016336  0.2389869

 Al 
  0.2426130  0.7539924  0.9998057

 Al 
  0.9966054  0.0063017  0.5225286

 Al 
  0.9922949  0.2374932  0.7569724

 Al 
  0.2471685  0.9880464  0.7546173

 Al 
  0.2662888  0.2477006  0.4959160

 Al 
  0.0057745  0.4942565  0.5023761

 Al 
  0.0016076  0.7565826  0.7467291

 Al 
  0.2477674  0.5052634  0.7423259

 Al 
  0.2378360  0.7491374  0.5102433

 Al 
  0.4873558  0.5039911  0.9906094

 Al 
  0.5065009  0.7675598  0.2539887

 Al 
  0.7401936  0.4791978  0.2233800

 Al 
  0.7565083  0.7487303  0.9991758

 Al 
  0.5035060  0.0146243  0.5070195

 Al 
  0.4876949  0.2760940  0.7492550

 Al 
  0.7494419  0.9860094  0.7479890

 Al 
  0.7600453  0.2505124  0.5234048

 Al 
  0.5056235  0.5192998  0.4841481

 Al 
  0.5043946  0.7515940  0.7705646

 Al 
  0.7443493  0.4880600  0.7449879

 Al 
  0.7638520  0.7415029  0.5164571

