32 
charge = 0 
 Al 
  0.0045060  0.9938555  0.0015420

 Al 
  0.0024442  0.2471487  0.2410017

 Al 
  0.2477699  0.9881949  0.2674979

 Al 
  0.2410846  0.2602396  0.9979370

 Al 
  0.4868695  0.0028699  0.9906292

 Al 
  0.5042387  0.2518910  0.2564638

 Al 
  0.7621578  0.9848720  0.2560987

 Al 
  0.7601220  0.2418779  0.9942330

 Al 
  0.9899646  0.5100020  0.9589104

 Al 
  0.0082595  0.7515222  0.2508477

 Al 
  0.2516620  0.5007920  0.2380550

 Al 
  0.2447960  0.7526199  0.0004740

 Al 
  0.9952824  0.0033847  0.5173729

 Al 
  0.9952156  0.2402406  0.7559106

 Al 
  0.2501980  0.9901898  0.7550517

 Al 
  0.2620935  0.2486511  0.4962378

 Al 
  0.0029466  0.4950708  0.5006807

 Al 
  0.0002388  0.7532659  0.7445423

 Al 
  0.2472910  0.5062757  0.7396490

 Al 
  0.2353782  0.7434632  0.5109549

 Al 
  0.4892815  0.5023984  0.9946636

 Al 
  0.5021633  0.7677603  0.2533055

 Al 
  0.7409423  0.4799948  0.2252698

 Al 
  0.7554156  0.7490768  0.9989691

 Al 
  0.5007091  0.0175660  0.5094859

 Al 
  0.4885204  0.2739283  0.7545691

 Al 
  0.7518452  0.9890327  0.7517685

 Al 
  0.7601319  0.2489530  0.5211029

 Al 
  0.5003044  0.5203171  0.4847706

 Al 
  0.5014801  0.7501411  0.7685449

 Al 
  0.7490545  0.4914423  0.7482748

 Al 
  0.7676340  0.7429632  0.5151837

