32 
charge = 0 
 Al 
  0.0043550  0.9937676  0.0001634

 Al 
  0.0014603  0.2457131  0.2418457

 Al 
  0.2456611  0.9863645  0.2683790

 Al 
  0.2427442  0.2593485  0.9972266

 Al 
  0.4862024  0.0018761  0.9918482

 Al 
  0.5070021  0.2497005  0.2546099

 Al 
  0.7622791  0.9862890  0.2560096

 Al 
  0.7599017  0.2428679  0.9946921

 Al 
  0.9886404  0.5102940  0.9577286

 Al 
  0.0101270  0.7559391  0.2519380

 Al 
  0.2539404  0.5003799  0.2378162

 Al 
  0.2461487  0.7516757  0.0008341

 Al 
  0.9948814  0.0017313  0.5139424

 Al 
  0.9973739  0.2419410  0.7552349

 Al 
  0.2519120  0.9918086  0.7551136

 Al 
  0.2591679  0.2494443  0.4965930

 Al 
  0.0012623  0.4953146  0.4995223

 Al 
  0.9994691  0.7514789  0.7436402

 Al 
  0.2471041  0.5066581  0.7383174

 Al 
  0.2345701  0.7406242  0.5109524

 Al 
  0.4905673  0.5015977  0.9970769

 Al 
  0.4997302  0.7676204  0.2528600

 Al 
  0.7418964  0.4810851  0.2267462

 Al 
  0.7546136  0.7492723  0.9989790

 Al 
  0.4993231  0.0186426  0.5110391

 Al 
  0.4891750  0.2720670  0.7574080

 Al 
  0.7529157  0.9909868  0.7541805

 Al 
  0.7598287  0.2480583  0.5191674

 Al 
  0.4973430  0.5206920  0.4854512

 Al 
  0.4997661  0.7492822  0.7667838

 Al 
  0.7514022  0.4936761  0.7499975

 Al 
  0.7692330  0.7438010  0.5139015

