32 
charge = 0 
 Al 
  0.0042684  0.9937491  0.9994777

 Al 
  0.0009975  0.2450436  0.2423172

 Al 
  0.2446698  0.9856146  0.2687491

 Al 
  0.2435585  0.2588424  0.9968764

 Al 
  0.4859685  0.0014715  0.9925400

 Al 
  0.5082979  0.2485446  0.2536483

 Al 
  0.7622741  0.9870662  0.2559700

 Al 
  0.7597050  0.2433011  0.9949111

 Al 
  0.9881454  0.5103349  0.9575033

 Al 
  0.0109339  0.7579365  0.2524689

 Al 
  0.2549663  0.5001844  0.2377791

 Al 
  0.2468232  0.7511695  0.0009938

 Al 
  0.9947787  0.0009331  0.5121640

 Al 
  0.9985471  0.2427887  0.7548698

 Al 
  0.2527276  0.9926872  0.7550889

 Al 
  0.2576135  0.2498923  0.4967935

 Al 
  0.0004158  0.4953715  0.4988800

 Al 
  0.9991065  0.7506646  0.7432974

 Al 
  0.2470422  0.5067719  0.7377432

 Al 
  0.2343325  0.7393594  0.5108336

 Al 
  0.4912504  0.5012413  0.9982699

 Al 
  0.4985644  0.7674880  0.2526422

 Al 
  0.7425152  0.4818016  0.2275902

 Al 
  0.7541768  0.7493750  0.9990273

 Al 
  0.4986944  0.0190090  0.5118311

 Al 
  0.4895550  0.2710051  0.7587310

 Al 
  0.7533662  0.9920004  0.7554156

 Al 
  0.7595874  0.2476313  0.5180771

 Al 
  0.4959358  0.5208133  0.4858745

 Al 
  0.4989283  0.7488590  0.7657628

 Al 
  0.7524170  0.4948319  0.7507524

 Al 
  0.7698369  0.7442144  0.5131182

