32 
charge = 0 
 Al 
  0.0040840  0.9937676  0.9981214

 Al 
  0.0001584  0.2438134  0.2433308

 Al 
  0.2428741  0.9845032  0.2693481

 Al 
  0.2451252  0.2577249  0.9962279

 Al 
  0.4857024  0.0008267  0.9940758

 Al 
  0.5106752  0.2461351  0.2517041

 Al 
  0.7621219  0.9887209  0.2558871

 Al 
  0.7591778  0.2440486  0.9953171

 Al 
  0.9875415  0.5102062  0.9578276

 Al 
  0.0122519  0.7614351  0.2534738

 Al 
  0.2567534  0.4998020  0.2378607

 Al 
  0.2481313  0.7501015  0.0012561

 Al 
  0.9947490  0.9994245  0.5085627

 Al 
  0.0010198  0.2444446  0.7540778

 Al 
  0.2542300  0.9945423  0.7549317

 Al 
  0.2543872  0.2508638  0.4972105

 Al 
  0.9987290  0.4953641  0.4974580

 Al 
  0.9984456  0.7492488  0.7428234

 Al 
  0.2469816  0.5068252  0.7368200

 Al 
  0.2341728  0.7371714  0.5103646

 Al 
  0.4926885  0.5006299  0.0005866

 Al 
  0.4963715  0.7671056  0.2522462

 Al 
  0.7440226  0.4835639  0.2294849

 Al 
  0.7532350  0.7496003  0.9992129

 Al 
  0.4975707  0.0194087  0.5134177

 Al 
  0.4904262  0.2686711  0.7611443

 Al 
  0.7541062  0.9940696  0.7578994

 Al 
  0.7589463  0.2468380  0.5157133

 Al 
  0.4933196  0.5209061  0.4868769

 Al 
  0.4973306  0.7480360  0.7634721

 Al 
  0.7540580  0.4971697  0.7519851

 Al 
  0.7706128  0.7450287  0.5112829

