32 
charge = 0 
 Al 
  0.0040369  0.9937837  0.9977860

 Al 
  0.9999691  0.2435288  0.2435944

 Al 
  0.2424707  0.9843151  0.2694669

 Al 
  0.2455002  0.2574254  0.9960819

 Al 
  0.4856777  0.0006955  0.9944891

 Al 
  0.5112222  0.2455151  0.2512190

 Al 
  0.7620539  0.9891528  0.2558623

 Al 
  0.7590243  0.2442132  0.9954124

 Al 
  0.9874783  0.5101307  0.9580726

 Al 
  0.0125155  0.7621999  0.2537090

 Al 
  0.2571420  0.4997055  0.2379127

 Al 
  0.2484456  0.7498243  0.0013081

 Al 
  0.9947762  0.9990706  0.5076642

 Al 
  0.0016571  0.2448468  0.7538649

 Al 
  0.2545740  0.9950213  0.7548710

 Al 
  0.2535629  0.2511188  0.4973133

 Al 
  0.9983083  0.4953393  0.4970707

 Al 
  0.9982959  0.7489431  0.7427491

 Al 
  0.2469779  0.5068004  0.7366418

 Al 
  0.2341951  0.7366974  0.5102000

 Al 
  0.4930635  0.5004987  0.0011472

 Al 
  0.4958554  0.7669868  0.2521583

 Al 
  0.7444532  0.4840701  0.2300035

 Al 
  0.7529862  0.7496634  0.9992785

 Al 
  0.4973145  0.0194396  0.5138112

 Al 
  0.4906688  0.2680498  0.7616974

 Al 
  0.7542597  0.9945943  0.7585169

 Al 
  0.7587558  0.2466549  0.5150908

 Al 
  0.4927120  0.5208950  0.4871566

 Al 
  0.4969519  0.7478380  0.7628521

 Al 
  0.7543810  0.4977538  0.7522289

 Al 
  0.7707131  0.7452304  0.5107705

