32 
charge = 0 
 Al 
  0.0037758  0.9939916  0.9958047

 Al 
  0.9990211  0.2420165  0.2452181

 Al 
  0.2405240  0.9839983  0.2698926

 Al 
  0.2475868  0.2554589  0.9953975

 Al 
  0.4858757  0.0000780  0.9972068

 Al 
  0.5140847  0.2416799  0.2483615

 Al 
  0.7613645  0.9918581  0.2556396

 Al 
  0.7579835  0.2450572  0.9959222

 Al 
  0.9878607  0.5093263  0.9609512

 Al 
  0.0134857  0.7658024  0.2549094

 Al 
  0.2589513  0.4990892  0.2384709

 Al 
  0.2501968  0.7480867  0.0014851

 Al 
  0.9951884  0.9971870  0.5023897

 Al 
  0.0055752  0.2471152  0.7524516

 Al 
  0.2563462  0.9979927  0.7543550

 Al 
  0.2485384  0.2527140  0.4978801

 Al 
  0.9957873  0.4950089  0.4944619

 Al 
  0.9975521  0.7475434  0.7426551

 Al 
  0.2470558  0.5063004  0.7360564

 Al 
  0.2348015  0.7344575  0.5088189

 Al 
  0.4954544  0.4998775  0.0043389

 Al 
  0.4930498  0.7660858  0.2517499

 Al 
  0.7474679  0.4876454  0.2335169

 Al 
  0.7513799  0.7501200  0.9998478

 Al 
  0.4959829  0.0190919  0.5161155

 Al 
  0.4923556  0.2640649  0.7645834

 Al 
  0.7549453  0.9977860  0.7621430

 Al 
  0.7573783  0.2456908  0.5111591

 Al 
  0.4895104  0.5204928  0.4890797

 Al 
  0.4948765  0.7467304  0.7587780

 Al 
  0.7555480  0.5012239  0.7531050

 Al 
  0.7704928  0.7464247  0.5072534

