32 
charge = 0 
 Al 
  0.0039453  0.9938320  0.9971190

 Al 
  0.9996164  0.2429880  0.2441290

 Al 
  0.2417281  0.9840491  0.2696649

 Al 
  0.2462267  0.2568016  0.9958133

 Al 
  0.4856789  0.0004604  0.9953505

 Al 
  0.5122568  0.2442565  0.2502537

 Al 
  0.7618769  0.9900339  0.2558042

 Al 
  0.7586964  0.2445188  0.9955930

 Al 
  0.9874573  0.5099277  0.9587632

 Al 
  0.0129560  0.7635921  0.2541533

 Al 
  0.2578437  0.4995087  0.2380526

 Al 
  0.2490570  0.7492587  0.0013935

 Al 
  0.9948678  0.9983949  0.5058784

 Al 
  0.0029491  0.2456302  0.7534219

 Al 
  0.2552225  0.9959952  0.7547275

 Al 
  0.2519009  0.2516398  0.4975137

 Al 
  0.9974692  0.4952601  0.4962576

 Al 
  0.9980187  0.7483924  0.7426526

 Al 
  0.2469865  0.5067002  0.7363522

 Al 
  0.2343102  0.7358361  0.5098126

 Al 
  0.4938332  0.5002599  0.0022449

 Al 
  0.4948641  0.7667219  0.2519974

 Al 
  0.7453777  0.4851616  0.2310975

 Al 
  0.7524726  0.7497995  0.9994357

 Al 
  0.4968343  0.0194260  0.5145921

 Al 
  0.4911848  0.2667690  0.7627407

 Al 
  0.7545320  0.9956487  0.7597433

 Al 
  0.7583387  0.2463071  0.5138149

 Al 
  0.4915586  0.5208282  0.4877543

 Al 
  0.4962205  0.7474519  0.7615601

 Al 
  0.7549181  0.4989196  0.7526348

 Al 
  0.7707972  0.7456302  0.5096802

