32 
charge = 0 
 Al 
  0.0038996  0.9938642  0.9967873

 Al 
  0.9994542  0.2427318  0.2444000

 Al 
  0.2413903  0.9839760  0.2697428

 Al 
  0.2465794  0.2564774  0.9956933

 Al 
  0.4857037  0.0003552  0.9957985

 Al 
  0.5127432  0.2436191  0.2497748

 Al 
  0.7617692  0.9904831  0.2557695

 Al 
  0.7585243  0.2446612  0.9956784

 Al 
  0.9875031  0.5098015  0.9592087

 Al 
  0.0131343  0.7642171  0.2543599

 Al 
  0.2581580  0.4994072  0.2381404

 Al 
  0.2493528  0.7489703  0.0014269

 Al 
  0.9949309  0.9980731  0.5049936

 Al 
  0.0036025  0.2460126  0.7531892

 Al 
  0.2555257  0.9964890  0.7546446

 Al 
  0.2510643  0.2519058  0.4976103

 Al 
  0.9970484  0.4952094  0.4958294

 Al 
  0.9978900  0.7481486  0.7426291

 Al 
  0.2469977  0.5066247  0.7362408

 Al 
  0.2344018  0.7354487  0.5095923

 Al 
  0.4942280  0.5001522  0.0027820

 Al 
  0.4943901  0.7665759  0.2519269

 Al 
  0.7458703  0.4857445  0.2316729

 Al 
  0.7522078  0.7498738  0.9995260

 Al 
  0.4966078  0.0193790  0.5149782

 Al 
  0.4914608  0.2661094  0.7632320

 Al 
  0.7546520  0.9961796  0.7603510

 Al 
  0.7581147  0.2461425  0.5131640

 Al 
  0.4910141  0.5207712  0.4880687

 Al 
  0.4958690  0.7472650  0.7608881

 Al 
  0.7551309  0.4994988  0.7527944

 Al 
  0.7707799  0.7458294  0.5091047

