32 
charge = 0 
 Al 
  0.0036075  0.9944755  0.9936154

 Al 
  0.9983466  0.2406849  0.2470831

 Al 
  0.2394795  0.9855663  0.2696587

 Al 
  0.2496399  0.2528093  0.9951760

 Al 
  0.4868237  0.9995433  0.0008341

 Al 
  0.5164955  0.2370848  0.2452577

 Al 
  0.7599166  0.9951859  0.2551074

 Al 
  0.7566779  0.2459061  0.9964284

 Al 
  0.9899696  0.5076989  0.9673581

 Al 
  0.0132172  0.7677194  0.2556136

 Al 
  0.2599005  0.4982142  0.2395933

 Al 
  0.2518650  0.7459148  0.0013452

 Al 
  0.9961103  0.9956413  0.4967935

 Al 
  0.0101356  0.2494146  0.7504542

 Al 
  0.2576989  0.0015804  0.7534850

 Al 
  0.2426452  0.2546099  0.4983466

 Al 
  0.9928184  0.4943431  0.4907826

 Al 
  0.9970398  0.7468529  0.7432305

 Al 
  0.2473219  0.5049837  0.7365489

 Al 
  0.2363757  0.7331444  0.5064180

 Al 
  0.4985879  0.4994864  0.0076506

 Al 
  0.4904275  0.7646255  0.2516150

 Al 
  0.7518229  0.4928939  0.2385327

 Al 
  0.7492723  0.7508613  0.0008910

 Al 
  0.4948159  0.0175771  0.5185684

 Al 
  0.4948852  0.2589649  0.7670326

 Al 
  0.7552893  0.0016051  0.7660339

 Al 
  0.7553252  0.2448814  0.5062794

 Al 
  0.4868546  0.5191216  0.4917764

 Al 
  0.4929397  0.7456636  0.7533711

 Al 
  0.7552782  0.5051272  0.7528402

 Al 
  0.7684162  0.7478182  0.5022796

