32 
charge = 0 
 Al 
  0.0036335  0.9948678  0.9924855

 Al 
  0.9981746  0.2401601  0.2480397

 Al 
  0.2395698  0.9874239  0.2690993

 Al 
  0.2506114  0.2511497  0.9954049

 Al 
  0.4876801  0.9992302  0.0030444

 Al 
  0.5173878  0.2345478  0.2436921

 Al 
  0.7587805  0.9970917  0.2546173

 Al 
  0.7559898  0.2464222  0.9967068

 Al 
  0.9918890  0.5065009  0.9723652

 Al 
  0.0123855  0.7676427  0.2555294

 Al 
  0.2598683  0.4976127  0.2404126

 Al 
  0.2526014  0.7446277  0.0010655

 Al 
  0.9967774  0.9951351  0.4940869

 Al 
  0.0125588  0.2505322  0.7491597

 Al 
  0.2580776  0.0036025  0.7529058

 Al 
  0.2394127  0.2556359  0.4984716

 Al 
  0.9911366  0.4939112  0.4884523

 Al 
  0.9969172  0.7468838  0.7438258

 Al 
  0.2475410  0.5039293  0.7374437

 Al 
  0.2375761  0.7330194  0.5047300

 Al 
  0.5005260  0.4994060  0.0093052

 Al 
  0.4892716  0.7635884  0.2517524

 Al 
  0.7545876  0.4963084  0.2417912

 Al 
  0.7479964  0.7513824  0.0016484

 Al 
  0.4943369  0.0162244  0.5197515

 Al 
  0.4966017  0.2559341  0.7679756

 Al 
  0.7552819  0.0037869  0.7679471

 Al 
  0.7539738  0.2445869  0.5034639

 Al 
  0.4859487  0.5178011  0.4934657

 Al 
  0.4920982  0.7451983  0.7501040

 Al 
  0.7544391  0.5072336  0.7521175

 Al 
  0.7663717  0.7486263  0.4991374

