32 
charge = 0 
 Al 
  0.0036050  0.9945659  0.9933221

 Al 
  0.9982885  0.2405364  0.2473343

 Al 
  0.2394535  0.9859673  0.2695498

 Al 
  0.2498973  0.2524021  0.9952069

 Al 
  0.4870180  0.9994691  0.0013824

 Al 
  0.5167529  0.2364376  0.2448480

 Al 
  0.7596530  0.9956661  0.2549985

 Al 
  0.7564984  0.2460299  0.9964977

 Al 
  0.9904064  0.5074142  0.9685275

 Al 
  0.0130538  0.7677813  0.2556297

 Al 
  0.2599314  0.4980706  0.2397876

 Al 
  0.2520643  0.7455943  0.0012895

 Al 
  0.9962712  0.9954878  0.4960745

 Al 
  0.0107618  0.2497079  0.7501386

 Al 
  0.2578214  0.0020915  0.7533439

 Al 
  0.2418197  0.2548735  0.4983899

 Al 
  0.9923939  0.4942354  0.4902109

 Al 
  0.9969989  0.7468331  0.7433642

 Al 
  0.2473727  0.5047374  0.7367309

 Al 
  0.2366603  0.7330714  0.5060133

 Al 
  0.4990644  0.4994567  0.0080825

 Al 
  0.4901131  0.7643805  0.2516336

 Al 
  0.7525024  0.4937256  0.2393260

 Al 
  0.7489555  0.7509863  0.0010717

 Al 
  0.4946822  0.0172702  0.5188840

 Al 
  0.4952973  0.2582100  0.7672999

 Al 
  0.7553005  0.0021534  0.7665388

 Al 
  0.7549985  0.2447948  0.5055715

 Al 
  0.4865836  0.5188295  0.4921922

 Al 
  0.4927108  0.7455361  0.7525593

 Al 
  0.7551099  0.5056656  0.7526954

 Al 
  0.7679607  0.7480199  0.5015074

