32 
charge = 0 
 Al 
  0.0036533  0.9942354  0.9945300

 Al 
  0.9985780  0.2411947  0.2463009

 Al 
  0.2397480  0.9846295  0.2698678

 Al 
  0.2488119  0.2539899  0.9951809

 Al 
  0.4863262  0.9997649  0.9992278

 Al 
  0.5155883  0.2390525  0.2465447

 Al 
  0.7606245  0.9937466  0.2553809

 Al 
  0.7572336  0.2455435  0.9962180

 Al 
  0.9888533  0.5084785  0.9642184

 Al 
  0.0135216  0.7672133  0.2554279

 Al 
  0.2596505  0.4986152  0.2390562

 Al 
  0.2512054  0.7468628  0.0014566

 Al 
  0.9956673  0.9962069  0.4990867

 Al 
  0.0082063  0.2484790  0.7513576

 Al 
  0.2572212  0.0000371  0.7538859

 Al 
  0.2451574  0.2538043  0.4981808

 Al 
  0.9940944  0.4946537  0.4924373

 Al 
  0.9972118  0.7470274  0.7429026

 Al 
  0.2471883  0.5056396  0.7361727

 Al 
  0.2356034  0.7335367  0.5075442

 Al 
  0.4971994  0.4996126  0.0062893

 Al 
  0.4914621  0.7653062  0.2516200

 Al 
  0.7498602  0.4905141  0.2362631

 Al 
  0.7502030  0.7505148  0.0003948

 Al 
  0.4952663  0.0183667  0.5175622

 Al 
  0.4937231  0.2611987  0.7661044

 Al 
  0.7551990  0.9999592  0.7644312

 Al 
  0.7562596  0.2451846  0.5083944

 Al 
  0.4878372  0.5198456  0.4905698

 Al 
  0.4937020  0.7460856  0.7557584

 Al 
  0.7555975  0.5034800  0.7531187

 Al 
  0.7695473  0.7472192  0.5045134

