32 
charge = 0 
 Al 
  0.0036322  0.9943109  0.9942193

 Al 
  0.9984902  0.2410141  0.2465658

 Al 
  0.2396268  0.9848968  0.2698171

 Al 
  0.2490966  0.2536038  0.9951636

 Al 
  0.4864772  0.9996918  0.9997562

 Al 
  0.5159113  0.2383941  0.2461066

 Al 
  0.7604030  0.9942255  0.2552980

 Al 
  0.7570467  0.2456636  0.9962886

 Al 
  0.9891924  0.5082310  0.9652010

 Al 
  0.0134511  0.7674360  0.2555109

 Al 
  0.2597607  0.4984865  0.2392270

 Al 
  0.2514356  0.7465497  0.0014281

 Al 
  0.9958084  0.9960014  0.4983021

 Al 
  0.0088560  0.2487996  0.7510643

 Al 
  0.2573981  0.0005520  0.7537560

 Al 
  0.2443146  0.2540753  0.4982427

 Al 
  0.9936686  0.4945535  0.4918977

 Al 
  0.9971474  0.7469494  0.7429991

 Al 
  0.2472291  0.5054354  0.7362705

 Al 
  0.2358460  0.7333771  0.5071841

 Al 
  0.4976548  0.4995644  0.0067534

 Al 
  0.4911019  0.7650884  0.2516088

 Al 
  0.7505000  0.4912876  0.2370006

 Al 
  0.7498960  0.7506262  0.0005532

 Al 
  0.4951079  0.0181266  0.5179063

 Al 
  0.4940981  0.2604599  0.7664336

 Al 
  0.7552374  0.0005074  0.7649782

 Al 
  0.7559564  0.2450757  0.5076915

 Al 
  0.4874821  0.5196277  0.4909646

 Al 
  0.4934360  0.7459383  0.7549725

 Al 
  0.7555232  0.5040345  0.7530531

 Al 
  0.7692094  0.7474184  0.5037845

