32 
charge = 0 
 Al 
  0.0037263  0.9952143  0.9917356

 Al 
  0.9981437  0.2398928  0.2486560

 Al 
  0.2399757  0.9892270  0.2684620

 Al 
  0.2512326  0.2498676  0.9957601

 Al 
  0.4884424  0.9989604  0.0046978

 Al 
  0.5177999  0.2327843  0.2426761

 Al 
  0.7578065  0.9984704  0.2541545

 Al 
  0.7555480  0.2468516  0.9969222

 Al 
  0.9935820  0.5055220  0.9766101

 Al 
  0.0114772  0.7670350  0.2551928

 Al 
  0.2595812  0.4971190  0.2410858

 Al 
  0.2530395  0.7436662  0.0007549

 Al 
  0.9973021  0.9949483  0.4923952

 Al 
  0.0141812  0.2512623  0.7481548

 Al 
  0.2581580  0.0050431  0.7524590

 Al 
  0.2371578  0.2563400  0.4984803

 Al 
  0.9899275  0.4936092  0.4866838

 Al 
  0.9968962  0.7470806  0.7443580

 Al 
  0.2477315  0.5030407  0.7383966

 Al 
  0.2385550  0.7332137  0.5033686

 Al 
  0.5020110  0.4994060  0.0104042

 Al 
  0.4885835  0.7627197  0.2519714

 Al 
  0.7566915  0.4989802  0.2443419

 Al 
  0.7470422  0.7518019  0.0022635

 Al 
  0.4940795  0.0150178  0.5204730

 Al 
  0.4979877  0.2536830  0.7684533

 Al 
  0.7551879  0.0053723  0.7691562

 Al 
  0.7528984  0.2444532  0.5014182

 Al 
  0.4855948  0.5165375  0.4947490

 Al 
  0.4916069  0.7449371  0.7476721

 Al 
  0.7535654  0.5087112  0.7513539

 Al 
  0.7644844  0.7492339  0.4967390

