32 
charge = 0 
 Al 
  0.0041990  0.9961735  0.9904361

 Al 
  0.9983404  0.2396998  0.2495966

 Al 
  0.2419212  0.9943938  0.2663123

 Al 
  0.2523130  0.2469284  0.9971586

 Al 
  0.4904695  0.9981399  0.0082236

 Al 
  0.5178444  0.2295109  0.2410326

 Al 
  0.7553364  0.0013106  0.2527944

 Al 
  0.7548983  0.2480484  0.9974766

 Al 
  0.9979382  0.5031570  0.9873286

 Al 
  0.0086914  0.7640661  0.2535097

 Al 
  0.2581976  0.4958727  0.2427318

 Al 
  0.2536916  0.7415858  0.9997215

 Al 
  0.9984518  0.9950906  0.4898223

 Al 
  0.0169620  0.2525865  0.7459235

 Al 
  0.2576716  0.0079080  0.7514776

 Al 
  0.2328820  0.2576531  0.4981771

 Al 
  0.9875105  0.4931538  0.4829142

 Al 
  0.9970212  0.7479568  0.7457279

 Al 
  0.2482340  0.5008440  0.7413767

 Al 
  0.2408420  0.7344983  0.5001114

 Al 
  0.5053970  0.4995458  0.0124090

 Al 
  0.4875910  0.7604636  0.2528662

 Al 
  0.7612296  0.5051594  0.2501609

 Al 
  0.7449990  0.7527858  0.0037090

 Al 
  0.4938468  0.0118026  0.5214098

 Al 
  0.5013465  0.2488466  0.7688159

 Al 
  0.7547089  0.0086728  0.7709940

 Al 
  0.7503082  0.2444211  0.4971685

 Al 
  0.4858472  0.5127382  0.4975620

 Al 
  0.4909534  0.7446772  0.7424929

 Al 
  0.7510767  0.5116566  0.7491139

 Al 
  0.7592792  0.7506497  0.4914447

