32 
charge = 0 
 Al 
  0.0038859  0.9956029  0.9910933

 Al 
  0.9981882  0.2397369  0.2491535

 Al 
  0.2406552  0.9913135  0.2676452

 Al 
  0.2517598  0.2485855  0.9962687

 Al 
  0.4892815  0.9986461  0.0062881

 Al 
  0.5179781  0.2312113  0.2418346

 Al 
  0.7567645  0.9997661  0.2536137

 Al 
  0.7551965  0.2473281  0.9971474

 Al 
  0.9954111  0.5045084  0.9811272

 Al 
  0.0103720  0.7659980  0.2546198

 Al 
  0.2590961  0.4965955  0.2417863

 Al 
  0.2533810  0.7427355  0.0003589

 Al 
  0.9978182  0.9949173  0.4910475

 Al 
  0.0155661  0.2518959  0.7471623

 Al 
  0.2580627  0.0063722  0.7520222

 Al 
  0.2351307  0.2569662  0.4984073

 Al 
  0.9888038  0.4933605  0.4849748

 Al 
  0.9969234  0.7473986  0.7449347

 Al 
  0.2479395  0.5021051  0.7395612

 Al 
  0.2395525  0.7336332  0.5019690

 Al 
  0.5034887  0.4994468  0.0113633

 Al 
  0.4880550  0.7617853  0.2522932

 Al 
  0.7587335  0.5016695  0.2468974

 Al 
  0.7461240  0.7522313  0.0028909

 Al 
  0.4939161  0.0136887  0.5210150

 Al 
  0.4994208  0.2515148  0.7687342

 Al 
  0.7550233  0.0068722  0.7701240

 Al 
  0.7517932  0.2443938  0.4994876

 Al 
  0.4855255  0.5150463  0.4960039

 Al 
  0.4912418  0.7447614  0.7453369

 Al 
  0.7525494  0.5100713  0.7504492

 Al 
  0.7623608  0.7498404  0.4943877

