32 
charge = 0 
 Al 
  0.0038253  0.9954693  0.9912937

 Al 
  0.9981659  0.2397765  0.2490025

 Al 
  0.2404002  0.9905920  0.2679360

 Al 
  0.2515952  0.2490112  0.9960831

 Al 
  0.4889956  0.9987562  0.0057683

 Al 
  0.5179447  0.2317113  0.2420945

 Al 
  0.7571172  0.9993453  0.2538018

 Al 
  0.7553017  0.2471635  0.9970707

 Al 
  0.9947911  0.5048475  0.9796013

 Al 
  0.0107581  0.7663878  0.2548364

 Al 
  0.2592780  0.4967724  0.2415512

 Al 
  0.2532783  0.7430399  0.0005000

 Al 
  0.9976486  0.9949111  0.4914559

 Al 
  0.0151342  0.2516967  0.7474890

 Al 
  0.2581135  0.0059440  0.7521657

 Al 
  0.2357767  0.2567670  0.4984407

 Al 
  0.9891664  0.4934360  0.4855329

 Al 
  0.9969098  0.7472811  0.7447391

 Al 
  0.2478689  0.5024194  0.7391515

 Al 
  0.2392208  0.7334699  0.5024368

 Al 
  0.5029986  0.4994295  0.0110601

 Al 
  0.4882135  0.7621034  0.2521756

 Al 
  0.7580652  0.5007760  0.2460509

 Al 
  0.7464247  0.7520890  0.0026818

 Al 
  0.4939595  0.0141429  0.5208566

 Al 
  0.4989406  0.2522251  0.7686624

 Al 
  0.7550851  0.0063846  0.7698307

 Al 
  0.7521645  0.2444050  0.5001151

 Al 
  0.4855180  0.5155673  0.4955906

 Al 
  0.4913494  0.7448097  0.7461004

 Al 
  0.7528996  0.5096319  0.7507636

 Al 
  0.7630909  0.7496386  0.4951611

