32 
charge = 0 
 Al 
  0.0042956  0.9963257  0.9903111

 Al 
  0.9983912  0.2397183  0.2496659

 Al 
  0.2422925  0.9951970  0.2659410

 Al 
  0.2524256  0.2465286  0.9974135

 Al 
  0.4907727  0.9979951  0.0086642

 Al 
  0.5177466  0.2291669  0.2408940

 Al 
  0.7549812  0.0016596  0.2525754

 Al 
  0.7548550  0.2482451  0.9975670

 Al 
  0.9985706  0.5028266  0.9888817

 Al 
  0.0082496  0.7635030  0.2531768

 Al 
  0.2579377  0.4956896  0.2429682

 Al 
  0.2537436  0.7413210  0.9995458

 Al 
  0.9985954  0.9951673  0.4896169

 Al 
  0.0172244  0.2527325  0.7456376

 Al 
  0.2575293  0.0082446  0.7513502

 Al 
  0.2324105  0.2577954  0.4980966

 Al 
  0.9872321  0.4931291  0.4824526

 Al 
  0.9970546  0.7481127  0.7459247

 Al 
  0.2483095  0.5005346  0.7418680

 Al 
  0.2411477  0.7347607  0.4996547

 Al 
  0.5058586  0.4995743  0.0126293

 Al 
  0.4875142  0.7601233  0.2530320

 Al 
  0.7617977  0.5059997  0.2509319

 Al 
  0.7447404  0.7529182  0.0039070

 Al 
  0.4938555  0.0113225  0.5214457

 Al 
  0.5018217  0.2482303  0.7687862

 Al 
  0.7546149  0.0090812  0.7711326

 Al 
  0.7499369  0.2444458  0.4966388

 Al 
  0.4859957  0.5121083  0.4979234

 Al 
  0.4909163  0.7446822  0.7418432

 Al 
  0.7507005  0.5120093  0.7487686

 Al 
  0.7584798  0.7508552  0.4907566

