32 
charge = 0 
 Al 
  0.0039528  0.9957403  0.9909064

 Al 
  0.9982179  0.2397109  0.2492896

 Al 
  0.2409361  0.9920586  0.2673370

 Al 
  0.2519133  0.2481635  0.9964692

 Al 
  0.4895735  0.9985298  0.0067955

 Al 
  0.5179843  0.2307411  0.2415982

 Al 
  0.7564093  0.0001733  0.2534181

 Al 
  0.7551025  0.2474976  0.9972254

 Al 
  0.9960386  0.5041681  0.9826679

 Al 
  0.0099698  0.7655685  0.2543773

 Al 
  0.2588956  0.4964160  0.2420227

 Al 
  0.2534738  0.7424360  0.0002104

 Al 
  0.9979840  0.9949396  0.4906799

 Al 
  0.0159658  0.2520853  0.7468405

 Al 
  0.2579934  0.0067831  0.7518811

 Al 
  0.2345156  0.2571556  0.4983639

 Al 
  0.9884560  0.4932936  0.4844315

 Al 
  0.9969420  0.7475261  0.7451327

 Al 
  0.2480125  0.5017883  0.7399894

 Al 
  0.2398829  0.7338201  0.5015012

 Al 
  0.5039738  0.4994678  0.0116504

 Al 
  0.4879140  0.7614611  0.2524219

 Al 
  0.7593881  0.5025568  0.2477353

 Al 
  0.7458294  0.7523736  0.0030989

 Al 
  0.4938827  0.0132271  0.5211499

 Al 
  0.4999035  0.2508205  0.7687850

 Al 
  0.7549540  0.0073449  0.7703888

 Al 
  0.7514220  0.2443889  0.4988788

 Al 
  0.4855626  0.5145030  0.4964074

 Al 
  0.4911490  0.7447243  0.7445931

 Al 
  0.7521892  0.5104933  0.7501262

 Al 
  0.7616108  0.7500421  0.4936266

