32 
charge = 0 
 Al 
  0.0041099  0.9960262  0.9905772

 Al 
  0.9982946  0.2396923  0.2495112

 Al 
  0.2415710  0.9936006  0.2666687

 Al 
  0.2521905  0.2473343  0.9969148

 Al 
  0.4901676  0.9982761  0.0077645

 Al 
  0.5179174  0.2298884  0.2411972

 Al 
  0.7556928  0.0009467  0.2530085

 Al 
  0.7549540  0.2478578  0.9973900

 Al 
  0.9973034  0.5034924  0.9857730

 Al 
  0.0091270  0.7645995  0.2538216

 Al 
  0.2584451  0.4960547  0.2424967

 Al 
  0.2536285  0.7418606  0.9998911

 Al 
  0.9983008  0.9950275  0.4900673

 Al 
  0.0166650  0.2524306  0.7462205

 Al 
  0.2577966  0.0075528  0.7516076

 Al 
  0.2333907  0.2574984  0.4982488

 Al 
  0.9878075  0.4931897  0.4833981

 Al 
  0.9969902  0.7478058  0.7455299

 Al 
  0.2481597  0.5011571  0.7408990

 Al 
  0.2405277  0.7342533  0.5005718

 Al 
  0.5049292  0.4995174  0.0121727

 Al 
  0.4876825  0.7608002  0.2527090

 Al 
  0.7606381  0.5043042  0.2493701

 Al 
  0.7452676  0.7526509  0.0035085

 Al 
  0.4938481  0.0122816  0.5213480

 Al 
  0.5008675  0.2494852  0.7688246

 Al 
  0.7547968  0.0082471  0.7708232

 Al 
  0.7506782  0.2444037  0.4977179

 Al 
  0.4857247  0.5133471  0.4971883

 Al 
  0.4910054  0.7446822  0.7431699

 Al 
  0.7514517  0.5112866  0.7494567

 Al 
  0.7600688  0.7504468  0.4921539

