32 
charge = 0 
 Al 
  0.0053141  0.9976449  0.9898879

 Al 
  0.9988652  0.2401923  0.2496201

 Al 
  0.2458282  0.0017796  0.2625613

 Al 
  0.2530197  0.2435907  0.9998441

 Al 
  0.4932157  0.9965583  0.0114759

 Al 
  0.5160549  0.2276756  0.2406935

 Al 
  0.7523142  0.0038736  0.2506918

 Al 
  0.7549663  0.2500941  0.9984580

 Al 
  0.0034417  0.5003379  0.0009467

 Al 
  0.0046396  0.7582644  0.2498651

 Al 
  0.2555331  0.4942627  0.2448097

 Al 
  0.2538649  0.7395711  0.9979927

 Al 
  0.9995000  0.9961116  0.4892468

 Al 
  0.0180201  0.2535518  0.7438060

 Al 
  0.2558190  0.0102025  0.7504802

 Al 
  0.2300505  0.2584625  0.4970930

 Al 
  0.9857891  0.4933815  0.4797621

 Al 
  0.9974556  0.7494740  0.7474197

 Al 
  0.2489394  0.4982191  0.7461747

 Al 
  0.2432776  0.7373806  0.4961871

 Al 
  0.5092966  0.4998008  0.0138644

 Al 
  0.4873979  0.7572930  0.2546037

 Al 
  0.7652604  0.5120526  0.2561395

 Al 
  0.7430338  0.7538154  0.0053364

 Al 
  0.4942354  0.0074972  0.5207663

 Al 
  0.5054502  0.2440869  0.7679632

 Al 
  0.7537139  0.0117049  0.7711264

 Al 
  0.7470373  0.2448468  0.4931464

 Al 
  0.4879721  0.5063920  0.5003255

 Al 
  0.4910277  0.7450943  0.7376306

 Al 
  0.7477414  0.5141911  0.7460299

 Al 
  0.7519232  0.7525964  0.4860527

