32 
charge = 0 
 Al 
  0.0048834  0.9971264  0.9899275

 Al 
  0.9986808  0.2399547  0.2497574

 Al 
  0.2444013  0.9992983  0.2639028

 Al 
  0.2528526  0.2446364  0.9988602

 Al 
  0.4923011  0.9971598  0.0105750

 Al 
  0.5168742  0.2279677  0.2405809

 Al 
  0.7532684  0.0031607  0.2514207

 Al 
  0.7548302  0.2493391  0.9980830

 Al 
  0.0016658  0.5012376  0.9965150

 Al 
  0.0059886  0.7603497  0.2512277

 Al 
  0.2564861  0.4947886  0.2441265

 Al 
  0.2538748  0.7401465  0.9986003

 Al 
  0.9992141  0.9956982  0.4891429

 Al 
  0.0179929  0.2533117  0.7443914

 Al 
  0.2565702  0.0096196  0.7507784

 Al 
  0.2306408  0.2583127  0.4975422

 Al 
  0.9861591  0.4931897  0.4805480

 Al 
  0.9972811  0.7489481  0.7468776

 Al 
  0.2486944  0.4990483  0.7444904

 Al 
  0.2425486  0.7363014  0.4974481

 Al 
  0.5080602  0.4997203  0.0135006

 Al 
  0.4873472  0.7583771  0.2539713

 Al 
  0.7642035  0.5099339  0.2544070

 Al 
  0.7435981  0.7535147  0.0048327

 Al 
  0.4940337  0.0089154  0.5212242

 Al 
  0.5041347  0.2454742  0.7683865

 Al 
  0.7540765  0.0108547  0.7713554

 Al 
  0.7481102  0.2446574  0.4943097

 Al 
  0.4870848  0.5086741  0.4995297

 Al 
  0.4909089  0.7448654  0.7390030

 Al 
  0.7488280  0.5135043  0.7470385

 Al 
  0.7544032  0.7519108  0.4876454

