32 
charge = 0 
 Al 
  0.0056297  0.9980088  0.9899374

 Al 
  0.9989864  0.2403841  0.2494555

 Al 
  0.2468306  0.0034280  0.2616244

 Al 
  0.2531050  0.2429286  0.0005421

 Al 
  0.4938258  0.9961091  0.0119734

 Al 
  0.5153879  0.2276632  0.2408915

 Al 
  0.7517140  0.0042745  0.2501918

 Al 
  0.7551161  0.2506435  0.9987402

 Al 
  0.0045864  0.4997550  0.0038364

 Al 
  0.0037572  0.7568239  0.2488887

 Al 
  0.2548797  0.4939211  0.2452651

 Al 
  0.2538327  0.7392443  0.9975756

 Al 
  0.9996535  0.9964160  0.4894523

 Al 
  0.0178580  0.2536718  0.7434879

 Al 
  0.2552535  0.0104933  0.7502983

 Al 
  0.2298525  0.2584934  0.4967440

 Al 
  0.9856653  0.4935758  0.4793971

 Al 
  0.9975868  0.7498292  0.7477687

 Al 
  0.2491151  0.4976932  0.7473392

 Al 
  0.2437169  0.7381578  0.4953690

 Al 
  0.5100911  0.4998465  0.0140525

 Al 
  0.4874870  0.7565504  0.2550455

 Al 
  0.7657851  0.5133582  0.2571333

 Al 
  0.7427058  0.7539911  0.0056495

 Al 
  0.4944025  0.0065640  0.5203233

 Al 
  0.5062930  0.2432689  0.7676130

 Al 
  0.7534639  0.0121838  0.7708307

 Al 
  0.7463306  0.2449965  0.4924571

 Al 
  0.4886441  0.5047770  0.5007871

 Al 
  0.4911465  0.7452935  0.7368497

 Al 
  0.7470422  0.5145673  0.7453777

 Al 
  0.7502599  0.7530890  0.4851010

