32 
charge = 0 
 Al 
  0.0043995  0.9964791  0.9902010

 Al 
  0.9984444  0.2397468  0.2497178

 Al 
  0.2426823  0.9960076  0.2655562

 Al 
  0.2525283  0.2461351  0.9976820

 Al 
  0.4910784  0.9978442  0.0090874

 Al 
  0.5176229  0.2288562  0.2407802

 Al 
  0.7546285  0.0019912  0.2523514

 Al 
  0.7548253  0.2484493  0.9976610

 Al 
  0.9992005  0.5024999  0.9904287

 Al 
  0.0078016  0.7629152  0.2528229

 Al 
  0.2576667  0.4955076  0.2432021

 Al 
  0.2537869  0.7410648  0.9993651

 Al 
  0.9987327  0.9952539  0.4894510

 Al 
  0.0174509  0.2528674  0.7453629

 Al 
  0.2573684  0.0085602  0.7512277

 Al 
  0.2319786  0.2579241  0.4980050

 Al 
  0.9869747  0.4931167  0.4820170

 Al 
  0.9970930  0.7482736  0.7461190

 Al 
  0.2483850  0.5002277  0.7423704

 Al 
  0.2414460  0.7350403  0.4992030

 Al 
  0.5063140  0.4996027  0.0128335

 Al 
  0.4874536  0.7597792  0.2532065

 Al 
  0.7623373  0.5068239  0.2516806

 Al 
  0.7444916  0.7530456  0.0041000

 Al 
  0.4938728  0.0108398  0.5214544

 Al 
  0.5022944  0.2476338  0.7687404

 Al 
  0.7545171  0.0094723  0.7712390

 Al 
  0.7495681  0.2444768  0.4961314

 Al 
  0.4861702  0.5114586  0.4982724

 Al 
  0.4908915  0.7446983  0.7412195

 Al 
  0.7503230  0.5123447  0.7484221

 Al 
  0.7576741  0.7510606  0.4900896

