32 
charge = 0 
 Al 
  0.0067026  0.9991820  0.9904423

 Al 
  0.9993181  0.2410920  0.2486671

 Al 
  0.2500260  0.0083263  0.2586345

 Al 
  0.2532783  0.2411069  0.0028130

 Al 
  0.4956846  0.9945077  0.0129944

 Al 
  0.5128026  0.2285271  0.2420548

 Al 
  0.7500730  0.0051396  0.2486275

 Al 
  0.7558388  0.2525519  0.9997587

 Al 
  0.0078350  0.4980360  0.0122420

 Al 
  0.0012512  0.7523823  0.2456698

 Al 
  0.2528971  0.4929273  0.2466759

 Al 
  0.2536520  0.7385327  0.9962886

 Al 
  0.9999505  0.9974444  0.4906057

 Al 
  0.0165103  0.2538748  0.7428679

 Al 
  0.2532721  0.0109215  0.7497983

 Al 
  0.2301631  0.2582719  0.4954680

 Al 
  0.9859215  0.4944792  0.4791099

 Al 
  0.9980310  0.7509170  0.7487686

 Al 
  0.2497364  0.4962131  0.7510358

 Al 
  0.2448307  0.7407455  0.4929966

 Al 
  0.5123509  0.4999307  0.0144263

 Al 
  0.4880055  0.7541755  0.2564304

 Al 
  0.7663977  0.5167467  0.2593127

 Al 
  0.7419187  0.7544094  0.0064848

 Al 
  0.4950386  0.0038166  0.5183073

 Al 
  0.5086357  0.2412863  0.7662554

 Al 
  0.7527140  0.0132159  0.7692688

 Al 
  0.7442429  0.2455596  0.4907467

 Al 
  0.4909943  0.4994332  0.5018526

 Al 
  0.4916625  0.7461079  0.7350948

 Al 
  0.7450807  0.5153272  0.7435275

 Al 
  0.7451846  0.7548092  0.4827707

