32 
charge = 0 
 Al 
  0.0061445  0.9985805  0.9901243

 Al 
  0.9991585  0.2407146  0.2491127

 Al 
  0.2483974  0.0058896  0.2601629

 Al 
  0.2532028  0.2419868  0.0016460

 Al 
  0.4947465  0.9953579  0.0125712

 Al 
  0.5142047  0.2279231  0.2413680

 Al 
  0.7508638  0.0047683  0.2494233

 Al 
  0.7554279  0.2515457  0.9992154

 Al 
  0.0062447  0.4988949  0.0080838

 Al 
  0.0024739  0.7546149  0.2473318

 Al 
  0.2538872  0.4934186  0.2459581

 Al 
  0.2537535  0.7388359  0.9969370

 Al 
  0.9998329  0.9969110  0.4899374

 Al 
  0.0173457  0.2537993  0.7431154

 Al 
  0.2543141  0.0107891  0.7500408

 Al 
  0.2298401  0.2584414  0.4961475

 Al 
  0.9856715  0.4939669  0.4790976

 Al 
  0.9977996  0.7503688  0.7482773

 Al 
  0.2494047  0.4969383  0.7491498

 Al 
  0.2443109  0.7394040  0.4941711

 Al 
  0.5112420  0.4998998  0.0142703

 Al 
  0.4877011  0.7553945  0.2557312

 Al 
  0.7662801  0.5151540  0.2583758

 Al 
  0.7422764  0.7542201  0.0060888

 Al 
  0.4946958  0.0051829  0.5194471

 Al 
  0.5074996  0.2421910  0.7669905

 Al 
  0.7530852  0.0127766  0.7701747

 Al 
  0.7452812  0.2452564  0.4915400

 Al 
  0.4897604  0.5022016  0.5013774

 Al 
  0.4913767  0.7456611  0.7358658

 Al 
  0.7460336  0.5150141  0.7444322

 Al 
  0.7477414  0.7538971  0.4838387

