32 
charge = 0 
 Al 
  0.0074996  0.0000223  0.9910784

 Al 
  0.9994975  0.2416588  0.2479481

 Al 
  0.2522647  0.0115019  0.2565034

 Al 
  0.2533736  0.2400389  0.0044466

 Al 
  0.4969766  0.9932169  0.0132914

 Al 
  0.5105972  0.2298884  0.2432887

 Al 
  0.7491052  0.0054539  0.2475224

 Al 
  0.7565343  0.2540666  0.0005903

 Al 
  0.0098485  0.4968578  0.0176514

 Al 
  0.9997451  0.7494419  0.2433122

 Al 
  0.2516286  0.4922962  0.2477080

 Al 
  0.2535011  0.7383038  0.9954309

 Al 
  0.0000149  0.9982006  0.4917368

 Al 
  0.0148953  0.2539218  0.7427219

 Al 
  0.2517338  0.0108534  0.7494802

 Al 
  0.2311061  0.2578721  0.4944557

 Al 
  0.9866578  0.4953455  0.4796409

 Al 
  0.9983516  0.7516583  0.7493998

 Al 
  0.2502587  0.4952688  0.7536681

 Al 
  0.2454099  0.7426835  0.4914534

 Al 
  0.5137642  0.4999307  0.0145587

 Al 
  0.4885327  0.7524256  0.2573585

 Al 
  0.7659113  0.5185325  0.2600799

 Al 
  0.7415512  0.7546050  0.0069378

 Al 
  0.4955658  0.0020135  0.5163606

 Al 
  0.5100280  0.2403371  0.7651032

 Al 
  0.7522449  0.0135575  0.7676724

 Al 
  0.7428741  0.2460361  0.4898656

 Al 
  0.4927949  0.4954210  0.5023167

 Al 
  0.4921229  0.7468232  0.7343758

 Al 
  0.7439038  0.5155425  0.7423828

 Al 
  0.7417071  0.7562225  0.4816606

