32 
charge = 0 
 Al 
  0.0091518  0.0017413  0.9931018

 Al 
  0.9996597  0.2428927  0.2462848

 Al 
  0.2567546  0.0172133  0.2520630

 Al 
  0.2536694  0.2384238  0.0077521

 Al 
  0.4997129  0.9902047  0.0129499

 Al 
  0.5052077  0.2345466  0.2466994

 Al 
  0.7474902  0.0055690  0.2451537

 Al 
  0.7583412  0.2576531  0.0025890

 Al 
  0.0134337  0.4942540  0.0276892

 Al 
  0.9973590  0.7441921  0.2383186

 Al 
  0.2495582  0.4912244  0.2501374

 Al 
  0.2532177  0.7385216  0.9939075

 Al 
  0.9998292  0.9997649  0.4945820

 Al 
  0.0100230  0.2540060  0.7430090

 Al 
  0.2482996  0.0099215  0.7487785

 Al 
  0.2346753  0.2565059  0.4923048

 Al 
  0.9895079  0.4976994  0.4825702

 Al 
  0.9989654  0.7531236  0.7505693

 Al 
  0.2516286  0.4933444  0.7592322

 Al 
  0.2461537  0.7469816  0.4884474

 Al 
  0.5162467  0.4997451  0.0146045

 Al 
  0.4898458  0.7484147  0.2590045

 Al 
  0.7625365  0.5207242  0.2600106

 Al 
  0.7412418  0.7548104  0.0074613

 Al 
  0.4967749  0.9985768  0.5110118

 Al 
  0.5122803  0.2393000  0.7622246

 Al 
  0.7514814  0.0133533  0.7632060

 Al 
  0.7402901  0.2472303  0.4887011

 Al 
  0.4967365  0.4864561  0.5027474

 Al 
  0.4932875  0.7485793  0.7339290

 Al 
  0.7419620  0.5152814  0.7403062

 Al 
  0.7346815  0.7597458  0.4806544

