32 
charge = 0 
 Al 
  0.0085404  0.0011014  0.9922256

 Al 
  0.9996386  0.2424298  0.2469185

 Al 
  0.2550975  0.0152208  0.2537337

 Al 
  0.2535308  0.2389275  0.0065368

 Al 
  0.4986671  0.9913804  0.0132246

 Al 
  0.5073499  0.2325058  0.2452960

 Al 
  0.7480434  0.0055938  0.2460658

 Al 
  0.7576110  0.2562361  0.0017957

 Al 
  0.0121702  0.4952762  0.0241028

 Al 
  0.9981338  0.7460064  0.2402022

 Al 
  0.2502289  0.4915809  0.2491634

 Al 
  0.2533154  0.7383285  0.9944297

 Al 
  0.9999468  0.9991807  0.4934483

 Al 
  0.0120897  0.2539577  0.7428172

 Al 
  0.2496213  0.0103881  0.7490607

 Al 
  0.2330887  0.2571048  0.4931006

 Al 
  0.9882357  0.4967242  0.4811779

 Al 
  0.9987463  0.7525877  0.7501497

 Al 
  0.2510643  0.4940783  0.7571160

 Al 
  0.2459457  0.7453183  0.4895550

 Al 
  0.5153879  0.4998453  0.0146206

 Al 
  0.4893310  0.7500012  0.2584439

 Al 
  0.7641849  0.5201413  0.2602730

 Al 
  0.7412863  0.7547621  0.0073387

 Al 
  0.4963096  0.9998181  0.5132320

 Al 
  0.5115328  0.2395562  0.7633867

 Al 
  0.7517338  0.0135711  0.7650673

 Al 
  0.7412183  0.2467502  0.4890389

 Al 
  0.4952292  0.4899287  0.5026546

 Al 
  0.4928159  0.7478813  0.7339463

 Al 
  0.7426142  0.5154869  0.7410499

 Al 
  0.7372939  0.7583276  0.4808264

