32 
charge = 0 
 Al 
  0.0089513  0.0015296  0.9927949

 Al 
  0.9996584  0.2427405  0.2464940

 Al 
  0.2562101  0.0165747  0.2526174

 Al 
  0.2536174  0.2385761  0.0073536

 Al 
  0.4993627  0.9905995  0.0130612

 Al 
  0.5059329  0.2338300  0.2462180

 Al 
  0.7476672  0.0055851  0.2454606

 Al 
  0.7580924  0.2571729  0.0023204

 Al 
  0.0130241  0.4946005  0.0265259

 Al 
  0.9975991  0.7447701  0.2389436

 Al 
  0.2497636  0.4913358  0.2498032

 Al 
  0.2532486  0.7384424  0.9940721

 Al 
  0.9998750  0.9995718  0.4941983

 Al 
  0.0107408  0.2539862  0.7429348

 Al 
  0.2487414  0.0100911  0.7488763

 Al 
  0.2341159  0.2567175  0.4925647

 Al 
  0.9890599  0.4973628  0.4820677

 Al 
  0.9988949  0.7529491  0.7504331

 Al 
  0.2514343  0.4935907  0.7585256

 Al 
  0.2460943  0.7464222  0.4888124

 Al 
  0.5159720  0.4997834  0.0146144

 Al 
  0.4896725  0.7489543  0.2588288

 Al 
  0.7631355  0.5205646  0.2601270

 Al 
  0.7412467  0.7547980  0.0074316

 Al 
  0.4966202  0.9989815  0.5117779

 Al 
  0.5120452  0.2393681  0.7626219

 Al 
  0.7515606  0.0134449  0.7638496

 Al 
  0.7405908  0.2470670  0.4888001

 Al 
  0.4962329  0.4876219  0.5027239

 Al 
  0.4931266  0.7483429  0.7339154

 Al 
  0.7421675  0.5153643  0.7405487

 Al 
  0.7355440  0.7592632  0.4806829

