32 
charge = 0 
 Al 
  0.0079142  0.0004529  0.9914893

 Al 
  0.9995681  0.2419633  0.2475472

 Al 
  0.2533996  0.0130340  0.2554044

 Al 
  0.2534280  0.2395599  0.0052832

 Al 
  0.4976437  0.9925078  0.0133236

 Al 
  0.5093572  0.2308141  0.2440337

 Al 
  0.7486610  0.0055418  0.2469506

 Al 
  0.7569403  0.2548995  0.0010519

 Al 
  0.0108052  0.4962415  0.0202849

 Al 
  0.9990582  0.7480211  0.2420833

 Al 
  0.2510358  0.4919967  0.2482662

 Al 
  0.2534243  0.7382704  0.9950163

 Al 
  0.0000074  0.9985917  0.4923878

 Al 
  0.0138756  0.2539342  0.7427244

 Al 
  0.2509096  0.0107161  0.7493181

 Al 
  0.2317942  0.2575999  0.4939186

 Al 
  0.9872024  0.4958591  0.4801371

 Al 
  0.9985124  0.7520321  0.7497055

 Al 
  0.2505606  0.4947960  0.7550295

 Al 
  0.2456512  0.7437119  0.4906898

 Al 
  0.5144362  0.4999084  0.0145958

 Al 
  0.4888384  0.7514888  0.2578078

 Al 
  0.7653742  0.5192651  0.2602569

 Al 
  0.7414175  0.7546792  0.0071246

 Al 
  0.4958542  0.0011225  0.5152010

 Al 
  0.5106641  0.2399708  0.7644523

 Al 
  0.7520284  0.0136194  0.7667096

 Al 
  0.7422009  0.2463071  0.4894968

 Al 
  0.4937491  0.4932813  0.5024826

 Al 
  0.4923853  0.7472266  0.7341419

 Al 
  0.7433605  0.5155636  0.7418358

 Al 
  0.7399448  0.7570207  0.4812485

