32 
charge = 0 
 Al 
  0.0095379  0.0021521  0.9937627

 Al 
  0.9996423  0.2431847  0.2458839

 Al 
  0.2578127  0.0183951  0.2509690

 Al 
  0.2537907  0.2381726  0.0085144

 Al 
  0.5004146  0.9894139  0.0126689

 Al 
  0.5037362  0.2360811  0.2476882

 Al 
  0.7471598  0.0055208  0.2445337

 Al 
  0.7588461  0.2586246  0.0031372

 Al 
  0.0142085  0.4935424  0.0298983

 Al 
  0.9969358  0.7431303  0.2370885

 Al 
  0.2492080  0.4910277  0.2508279

 Al 
  0.2531620  0.7387246  0.9936055

 Al 
  0.9997191  0.0001448  0.4953591

 Al 
  0.0085095  0.2540604  0.7431860

 Al 
  0.2474184  0.0095441  0.7485706

 Al 
  0.2358732  0.2560504  0.4918110

 Al 
  0.9904708  0.4984035  0.4836815

 Al 
  0.9990978  0.7534615  0.7508341

 Al 
  0.2520346  0.4928444  0.7606430

 Al 
  0.2462390  0.7481078  0.4877320

 Al 
  0.5167529  0.4996572  0.0145686

 Al 
  0.4901861  0.7473108  0.2593213

 Al 
  0.7611975  0.5209408  0.2597000

 Al 
  0.7412665  0.7548228  0.0074811

 Al 
  0.4970781  0.9978046  0.5094129

 Al 
  0.5127011  0.2392146  0.7614079

 Al 
  0.7513403  0.0131169  0.7618596

 Al 
  0.7397208  0.2475608  0.4885439

 Al 
  0.4977353  0.4841171  0.5027697

 Al 
  0.4936191  0.7490582  0.7340132

 Al 
  0.7415908  0.5150760  0.7398396

 Al 
  0.7329947  0.7607334  0.4806854

