32 
charge = 0 
 Al 
  0.0103708  0.0030951  0.9956413

 Al 
  0.9994691  0.2437936  0.2450733

 Al 
  0.2602025  0.0206784  0.2483998

 Al 
  0.2542250  0.2379004  0.0101356

 Al 
  0.5021472  0.9875130  0.0116442

 Al 
  0.5000693  0.2404052  0.2502265

 Al 
  0.7464804  0.0053339  0.2429669

 Al 
  0.7601072  0.2610514  0.0045183

 Al 
  0.0158569  0.4916823  0.0345577

 Al 
  0.9962254  0.7411353  0.2342508

 Al 
  0.2487575  0.4907307  0.2526954

 Al 
  0.2530815  0.7394919  0.9930659

 Al 
  0.9993354  0.0010420  0.4972947

 Al 
  0.0043711  0.2543030  0.7437676

 Al 
  0.2453134  0.0084105  0.7479716

 Al 
  0.2392382  0.2547238  0.4908012

 Al 
  0.9931649  0.5003131  0.4870068

 Al 
  0.9993577  0.7541916  0.7514182

 Al 
  0.2531323  0.4915685  0.7640773

 Al 
  0.2462564  0.7509121  0.4860774

 Al 
  0.5177231  0.4993664  0.0143755

 Al 
  0.4909658  0.7444347  0.2598300

 Al 
  0.7571469  0.5208604  0.2585565

 Al 
  0.7415252  0.7547819  0.0072855

 Al 
  0.4977575  0.9961636  0.5051186

 Al 
  0.5134412  0.2392555  0.7592854

 Al 
  0.7510891  0.0122296  0.7582211

 Al 
  0.7385624  0.2483677  0.4883880

 Al 
  0.5000953  0.4784082  0.5027239

 Al 
  0.4944681  0.7502599  0.7345367

 Al 
  0.7409175  0.5143532  0.7388062

 Al 
  0.7291446  0.7632419  0.4812843

