32 
charge = 0 
 Al 
  0.0107445  0.0035815  0.9968987

 Al 
  0.9992760  0.2440387  0.2447973

 Al 
  0.2614079  0.0215002  0.2470237

 Al 
  0.2545926  0.2380043  0.0108435

 Al 
  0.5031397  0.9864833  0.0108200

 Al 
  0.4979852  0.2432392  0.2517103

 Al 
  0.7461759  0.0052114  0.2420326

 Al 
  0.7608126  0.2624412  0.0053215

 Al 
  0.0166205  0.4905326  0.0366393

 Al 
  0.9960287  0.7404559  0.2327917

 Al 
  0.2488157  0.4907022  0.2539020

 Al 
  0.2530865  0.7401205  0.9929075

 Al 
  0.9990347  0.0015358  0.4983949

 Al 
  0.0017264  0.2545344  0.7441859

 Al 
  0.2441760  0.0076345  0.7475533

 Al 
  0.2414187  0.2538043  0.4904077

 Al 
  0.9949025  0.5015333  0.4893013

 Al 
  0.9994505  0.7545307  0.7517091

 Al 
  0.2538315  0.4907913  0.7660240

 Al 
  0.2461301  0.7525506  0.4852062

 Al 
  0.5180635  0.4991510  0.0141701

 Al 
  0.4913420  0.7426724  0.2598980

 Al 
  0.7543575  0.5204012  0.2577051

 Al 
  0.7418222  0.7547102  0.0069799

 Al 
  0.4980694  0.9954346  0.5024207

 Al 
  0.5136565  0.2394226  0.7580033

 Al 
  0.7510061  0.0115155  0.7559155

 Al 
  0.7381107  0.2487959  0.4884449

 Al 
  0.5013477  0.4752203  0.5026521

 Al 
  0.4949681  0.7509603  0.7350502

 Al 
  0.7407034  0.5137976  0.7382976

 Al 
  0.7271979  0.7646948  0.4819885

