32 
charge = 0 
 Al 
  0.0108435  0.0037275  0.9973355

 Al 
  0.9991968  0.2440956  0.2447515

 Al 
  0.2617680  0.0216734  0.2465979

 Al 
  0.2547362  0.2380860  0.0110292

 Al 
  0.5034577  0.9861641  0.0105119

 Al 
  0.4973232  0.2442107  0.2521880

 Al 
  0.7460905  0.0051730  0.2417244

 Al 
  0.7610316  0.2628855  0.0055814

 Al 
  0.0168358  0.4901465  0.0372024

 Al 
  0.9959965  0.7403198  0.2323561

 Al 
  0.2488911  0.4907208  0.2543179

 Al 
  0.2530989  0.7403557  0.9928853

 Al 
  0.9989221  0.0016930  0.4987439

 Al 
  0.0008292  0.2546272  0.7443344

 Al 
  0.2438258  0.0073635  0.7474048

 Al 
  0.2421600  0.2534788  0.4903185

 Al 
  0.9954916  0.5019479  0.4901045

 Al 
  0.9994691  0.7546235  0.7517957

 Al 
  0.2540703  0.4905302  0.7666477

 Al 
  0.2460646  0.7530865  0.4849389

 Al 
  0.5181328  0.4990718  0.0140847

 Al 
  0.4914472  0.7420858  0.2598770

 Al 
  0.7533872  0.5201822  0.2574068

 Al 
  0.7419447  0.7546792  0.0068450

 Al 
  0.4981511  0.9952403  0.5015111

 Al 
  0.5136887  0.2394956  0.7575801

 Al 
  0.7509888  0.0112482  0.7551346

 Al 
  0.7380080  0.2489246  0.4884857

 Al 
  0.5017289  0.4742141  0.5026249

 Al 
  0.4951290  0.7511905  0.7352544

 Al 
  0.7406638  0.5135959  0.7381479

 Al 
  0.7266224  0.7651614  0.4822781

