32 
charge = 0 
 Al 
  0.0097211  0.0023526  0.9941129

 Al 
  0.9996225  0.2433221  0.2456958

 Al 
  0.2583238  0.0189335  0.2504331

 Al 
  0.2538612  0.2380773  0.0088746

 Al 
  0.5007661  0.9890216  0.0125006

 Al 
  0.5029949  0.2368955  0.2481932

 Al 
  0.7470076  0.0054886  0.2442218

 Al 
  0.7591010  0.2591134  0.0034132

 Al 
  0.0145735  0.4931786  0.0309366

 Al 
  0.9967539  0.7426514  0.2364895

 Al 
  0.2490669  0.4909460  0.2511856

 Al 
  0.2531385  0.7388496  0.9934719

 Al 
  0.9996547  0.0003317  0.4957502

 Al 
  0.0077187  0.2540951  0.7432887

 Al 
  0.2469828  0.0093374  0.7484605

 Al 
  0.2365081  0.2558066  0.4915796

 Al 
  0.9909806  0.4987699  0.4842879

 Al 
  0.9991585  0.7536223  0.7509603

 Al 
  0.2522462  0.4925920  0.7613435

 Al 
  0.2462650  0.7486721  0.4873843

 Al 
  0.5169831  0.4996065  0.0145426

 Al 
  0.4903532  0.7467464  0.2594575

 Al 
  0.7604624  0.5209952  0.2595082

 Al 
  0.7412950  0.7548228  0.0074712

 Al 
  0.4972254  0.9974407  0.5085837

 Al 
  0.5128855  0.2391948  0.7609908

 Al 
  0.7512784  0.0129721  0.7611603

 Al 
  0.7394560  0.2477266  0.4884857

 Al 
  0.4982266  0.4829513  0.5027709

 Al 
  0.4937874  0.7492995  0.7340825

 Al 
  0.7414249  0.5149547  0.7396169

 Al 
  0.7321766  0.7612346  0.4807460

