32 
charge = 0 
 Al 
  0.0111195  0.0047003  0.0015618

 Al 
  0.9982092  0.2440065  0.2456339

 Al 
  0.2640414  0.0208307  0.2435201

 Al 
  0.2565294  0.2398470  0.0114277

 Al 
  0.5059675  0.9839315  0.0070219

 Al 
  0.4923333  0.2532907  0.2558314

 Al 
  0.7456772  0.0049205  0.2391330

 Al 
  0.7625316  0.2663556  0.0076543

 Al 
  0.0178729  0.4867333  0.0392666

 Al 
  0.9963232  0.7411378  0.2297300

 Al 
  0.2507821  0.4915450  0.2583300

 Al 
  0.2534961  0.7430387  0.9933766

 Al 
  0.9976189  0.0029194  0.5013725

 Al 
  0.9925375  0.2558190  0.7458269

 Al 
  0.2414027  0.0047609  0.7458678

 Al 
  0.2488763  0.2500854  0.4905995

 Al 
  0.0008316  0.5057868  0.4979753

 Al 
  0.9993540  0.7550010  0.7523600

 Al 
  0.2563227  0.4881417  0.7716660

 Al 
  0.2449817  0.7577323  0.4830454

 Al 
  0.5176749  0.4982080  0.0127828

 Al 
  0.4918445  0.7369858  0.2586382

 Al 
  0.7442639  0.5168606  0.2546681

 Al 
  0.7436068  0.7542127  0.0048463

 Al 
  0.4983157  0.9947119  0.4932293

 Al 
  0.5131231  0.2404200  0.7539738

 Al 
  0.7510123  0.0082459  0.7479221

 Al 
  0.7383496  0.2496114  0.4892431

 Al 
  0.5042498  0.4667875  0.5024764

 Al 
  0.4963665  0.7531644  0.7377679

 Al 
  0.7410128  0.5114376  0.7373125

 Al 
  0.7233689  0.7687689  0.4859376

