32 
charge = 0 
 Al 
  0.0110799  0.0047733  0.0020556

 Al 
  0.9980756  0.2439322  0.2458938

 Al 
  0.2641899  0.0204643  0.2432553

 Al 
  0.2567880  0.2401515  0.0113299

 Al 
  0.5062014  0.9837632  0.0065541

 Al 
  0.4919014  0.2543104  0.2561408

 Al 
  0.7456661  0.0049045  0.2388718

 Al 
  0.7626355  0.2666749  0.0078511

 Al 
  0.0178939  0.4863682  0.0391713

 Al 
  0.9964111  0.7414447  0.2295889

 Al 
  0.2511089  0.4917145  0.2588028

 Al 
  0.2535728  0.7433951  0.9935115

 Al 
  0.9974407  0.0030357  0.5015965

 Al 
  0.9916007  0.2559898  0.7460113

 Al 
  0.2412195  0.0044614  0.7456784

 Al 
  0.2496077  0.2496535  0.4907641

 Al 
  0.0014195  0.5062200  0.4989072

 Al 
  0.9993094  0.7549899  0.7524046

 Al 
  0.2565838  0.4878694  0.7721586

 Al 
  0.2448072  0.7582397  0.4828870

 Al 
  0.5174979  0.4980929  0.0125650

 Al 
  0.4918234  0.7364536  0.2583857

 Al 
  0.7432503  0.5163507  0.2543797

 Al 
  0.7438567  0.7541372  0.0045344

 Al 
  0.4982649  0.9947936  0.4923011

 Al 
  0.5129659  0.2405364  0.7536038

 Al 
  0.7510297  0.0078474  0.7471041

 Al 
  0.7385402  0.2496275  0.4893582

 Al 
  0.5044230  0.4661712  0.5024887

 Al 
  0.4964729  0.7533748  0.7381206

 Al 
  0.7411267  0.5111641  0.7372791

 Al 
  0.7232352  0.7690919  0.4864462

