32 
charge = 0 
 Al 
  0.0110254  0.0048413  0.0025531

 Al 
  0.9979382  0.2438456  0.2461895

 Al 
  0.2643198  0.0200448  0.2430028

 Al 
  0.2570591  0.2404757  0.0112037

 Al 
  0.5064254  0.9836134  0.0060702

 Al 
  0.4914942  0.2553277  0.2564254

 Al 
  0.7456611  0.0048908  0.2386157

 Al 
  0.7627234  0.2669781  0.0080392

 Al 
  0.0178976  0.4860094  0.0390129

 Al 
  0.9965064  0.7417925  0.2294812

 Al 
  0.2514554  0.4919014  0.2592805

 Al 
  0.2536558  0.7437652  0.9936612

 Al 
  0.9972538  0.0031484  0.5018056

 Al 
  0.9906626  0.2561668  0.7462007

 Al 
  0.2410549  0.0041607  0.7454866

 Al 
  0.2503317  0.2492092  0.4909559

 Al 
  0.0020049  0.5066531  0.4998490

 Al 
  0.9992587  0.7549676  0.7524454

 Al 
  0.2568474  0.4875971  0.7726387

 Al 
  0.2446228  0.7587471  0.4827385

 Al 
  0.5172937  0.4979741  0.0123274

 Al 
  0.4917900  0.7359314  0.2581122

 Al 
  0.7422442  0.5158148  0.2540988

 Al 
  0.7441216  0.7540555  0.0042052

 Al 
  0.4982006  0.9949025  0.4913705

 Al 
  0.5127914  0.2406539  0.7532412

 Al 
  0.7510482  0.0074378  0.7462836

 Al 
  0.7387642  0.2496287  0.4894795

 Al 
  0.5045753  0.4656032  0.5025110

 Al 
  0.4965732  0.7535840  0.7384870

 Al 
  0.7412541  0.5108831  0.7372581

 Al 
  0.7231486  0.7693963  0.4869709

