32 
charge = 0 
 Al 
  0.0110626  0.0041198  0.9986907

 Al 
  0.9989196  0.2441872  0.2447738

 Al 
  0.2627172  0.0218789  0.2454235

 Al 
  0.2552299  0.2384684  0.0114190

 Al 
  0.5043698  0.9852866  0.0094921

 Al 
  0.4954544  0.2471858  0.2535481

 Al 
  0.7458851  0.0050691  0.2408198

 Al 
  0.7616356  0.2641528  0.0063289

 Al 
  0.0173581  0.4889931  0.0384894

 Al 
  0.9959940  0.7401898  0.2312138

 Al 
  0.2492884  0.4908594  0.2556024

 Al 
  0.2531731  0.7411403  0.9929075

 Al 
  0.9985483  0.0021385  0.4997314

 Al 
  0.9980991  0.2549540  0.7448010

 Al 
  0.2428667  0.0065244  0.7469296

 Al 
  0.2444037  0.2524405  0.4901861

 Al 
  0.9972736  0.5032102  0.4926105

 Al 
  0.9994889  0.7548438  0.7520234

 Al 
  0.2548005  0.4897456  0.7684409

 Al 
  0.2458022  0.7546644  0.4842087

 Al 
  0.5182008  0.4988169  0.0137654

 Al 
  0.4916935  0.7403396  0.2596728

 Al 
  0.7503948  0.5193394  0.2564873

 Al 
  0.7423853  0.7545617  0.0063376

 Al 
  0.4983268  0.9948171  0.4987662

 Al 
  0.5136714  0.2397604  0.7563326

 Al 
  0.7509641  0.0103671  0.7527647

 Al 
  0.7378595  0.2492537  0.4886689

 Al 
  0.5027573  0.4713962  0.5025457

 Al 
  0.4955893  0.7518638  0.7359561

 Al 
  0.7406428  0.5129424  0.7377655

 Al 
  0.7251423  0.7664893  0.4832954

