32 
charge = 0 
 Al 
  0.0111084  0.0042349  0.9991560

 Al 
  0.9988144  0.2441909  0.2448381

 Al 
  0.2629907  0.0218405  0.2450658

 Al 
  0.2554168  0.2386429  0.0114920

 Al 
  0.5046582  0.9850230  0.0091208

 Al 
  0.4948753  0.2481932  0.2539726

 Al 
  0.7458319  0.0050381  0.2405265

 Al 
  0.7618150  0.2645513  0.0065665

 Al 
  0.0174917  0.4886095  0.0387840

 Al 
  0.9960212  0.7402381  0.2308908

 Al 
  0.2494753  0.4909349  0.2560418

 Al 
  0.2532115  0.7414274  0.9929471

 Al 
  0.9984097  0.0022796  0.5000371

 Al 
  0.9971808  0.2550777  0.7449644

 Al 
  0.2425796  0.0062361  0.7467625

 Al 
  0.2451549  0.2520742  0.4901898

 Al 
  0.9978689  0.5036360  0.4934743

 Al 
  0.9994827  0.7548958  0.7520902

 Al 
  0.2550493  0.4894820  0.7690114

 Al 
  0.2456933  0.7551817  0.4839872

 Al 
  0.5181761  0.4987241  0.0136367

 Al 
  0.4917516  0.7397654  0.2595589

 Al 
  0.7493787  0.5189978  0.2561791

 Al 
  0.7425561  0.7545146  0.0061334

 Al 
  0.4983590  0.9947305  0.4978466

 Al 
  0.5136268  0.2398619  0.7559254

 Al 
  0.7509641  0.0100465  0.7519665

 Al 
  0.7378657  0.2493429  0.4887468

 Al 
  0.5030593  0.4705274  0.5025234

 Al 
  0.4957329  0.7520853  0.7362210

 Al 
  0.7406663  0.5127085  0.7376603

 Al 
  0.7247339  0.7669063  0.4836827

