32 
charge = 0 
 Al 
  0.0111393  0.0043426  0.9996275

 Al 
  0.9987030  0.2441810  0.2449322

 Al 
  0.2632419  0.0217477  0.2447255

 Al 
  0.2556148  0.2388397  0.0115366

 Al 
  0.5049379  0.9847730  0.0087322

 Al 
  0.4943184  0.2492067  0.2543822

 Al 
  0.7457873  0.0050097  0.2402369

 Al 
  0.7619833  0.2649386  0.0067967

 Al 
  0.0176068  0.4882283  0.0390117

 Al 
  0.9960596  0.7403309  0.2305987

 Al 
  0.2496881  0.4910252  0.2564885

 Al 
  0.2532548  0.7417257  0.9930016

 Al 
  0.9982662  0.0024157  0.5003317

 Al 
  0.9962576  0.2552101  0.7451290

 Al 
  0.2423098  0.0059465  0.7465918

 Al 
  0.2459037  0.2516979  0.4902183

 Al 
  0.9984642  0.5040629  0.4943518

 Al 
  0.9994703  0.7549391  0.7521521

 Al 
  0.2552992  0.4892159  0.7695683

 Al 
  0.2455720  0.7556953  0.4837780

 Al 
  0.5181266  0.4986288  0.0134944

 Al 
  0.4917962  0.7391961  0.2594203

 Al 
  0.7483578  0.5186278  0.2558710

 Al 
  0.7427405  0.7544627  0.0059118

 Al 
  0.4983776  0.9946698  0.4969259

 Al 
  0.5135637  0.2399671  0.7555232

 Al 
  0.7509678  0.0097136  0.7511645

 Al 
  0.7379016  0.2494208  0.4888322

 Al 
  0.5033402  0.4696983  0.5025036

 Al 
  0.4958715  0.7523043  0.7365019

 Al 
  0.7407059  0.5124684  0.7375674

 Al 
  0.7243701  0.7673098  0.4840924

