32 
charge = 0 
 Al 
  0.0099500  0.0052584  0.0070021

 Al 
  0.9966697  0.2427108  0.2503997

 Al 
  0.2646379  0.0140129  0.2411626

 Al 
  0.2600032  0.2440671  0.0089439

 Al 
  0.5079786  0.9831791  0.0010594

 Al 
  0.4891132  0.2639176  0.2576333

 Al 
  0.7458381  0.0048488  0.2366306

 Al 
  0.7627630  0.2689199  0.0093374

 Al 
  0.0172071  0.4831543  0.0350824

 Al 
  0.9975744  0.7465039  0.2298896

 Al 
  0.2550431  0.4942985  0.2636701

 Al 
  0.2546334  0.7475645  0.9956871

 Al 
  0.9952923  0.0039936  0.5029145

 Al 
  0.9822793  0.2579749  0.7481622

 Al 
  0.2403582  0.0014999  0.7437553

 Al 
  0.2563400  0.2446871  0.4940077

 Al 
  0.0071024  0.5104921  0.5085553

 Al 
  0.9985793  0.7542684  0.7527759

 Al 
  0.2592508  0.4851765  0.7763452

 Al 
  0.2425920  0.7633137  0.4818388

 Al 
  0.5142679  0.4967378  0.0092656

 Al 
  0.4910004  0.7318660  0.2547918

 Al 
  0.7339785  0.5099797  0.2520209

 Al 
  0.7471152  0.7530246  0.0004888

 Al 
  0.4970497  0.9971016  0.4829959

 Al 
  0.5104661  0.2415227  0.7504542

 Al 
  0.7511658  0.0033290  0.7389684

 Al 
  0.7422516  0.2490000  0.4906737

 Al 
  0.5049923  0.4629709  0.5033538

 Al 
  0.4970732  0.7553401  0.7423024

 Al 
  0.7429669  0.5081506  0.7376306

 Al 
  0.7244641  0.7711351  0.4922021

