32 
charge = 0 
 Al 
  0.0097743  0.0052931  0.0074699

 Al 
  0.9965423  0.2425660  0.2510235

 Al 
  0.2645810  0.0131268  0.2409868

 Al 
  0.2603745  0.2445114  0.0085899

 Al 
  0.5080974  0.9832434  0.0004430

 Al 
  0.4889956  0.2647567  0.2575912

 Al 
  0.7458764  0.0048475  0.2364462

 Al 
  0.7626739  0.2690325  0.0094302

 Al 
  0.0170610  0.4828969  0.0344080

 Al 
  0.9977018  0.7471685  0.2300814

 Al 
  0.2554490  0.4946364  0.2641478

 Al 
  0.2547609  0.7480298  0.9959754

 Al 
  0.9950522  0.0040716  0.5029466

 Al 
  0.9813821  0.2581828  0.7484122

 Al 
  0.2403668  0.0012202  0.7435783

 Al 
  0.2569217  0.2441352  0.4944879

 Al 
  0.0076382  0.5108955  0.5095206

 Al 
  0.9984877  0.7541409  0.7528167

 Al 
  0.2595107  0.4849265  0.7766781

 Al 
  0.2423395  0.7638137  0.4817930

 Al 
  0.5138087  0.4965868  0.0088139

 Al 
  0.4908742  0.7315108  0.2543476

 Al 
  0.7332001  0.5092471  0.2518539

 Al 
  0.7475100  0.7528749  0.0000050

 Al 
  0.4968727  0.9974630  0.4820863

 Al 
  0.5101393  0.2415821  0.7502116

 Al 
  0.7511608  0.0028464  0.7381937

 Al 
  0.7427912  0.2488627  0.4908123

 Al 
  0.5049391  0.4629870  0.5035394

 Al 
  0.4970806  0.7555121  0.7427664

 Al 
  0.7432083  0.5078338  0.7377358

 Al 
  0.7248292  0.7711982  0.4928048

