32 
charge = 0 
 Al 
  0.0101171  0.0052238  0.0065257

 Al 
  0.9968034  0.2428543  0.2498032

 Al 
  0.2646763  0.0148619  0.2413408

 Al 
  0.2596381  0.2436266  0.0092817

 Al 
  0.5078486  0.9831394  0.0016670

 Al 
  0.4892592  0.2630476  0.2576382

 Al 
  0.7458034  0.0048500  0.2368212

 Al 
  0.7628323  0.2687850  0.0092322

 Al 
  0.0173420  0.4834253  0.0357173

 Al 
  0.9974481  0.7458616  0.2297250

 Al 
  0.2546322  0.4939731  0.2631862

 Al 
  0.2545097  0.7471053  0.9954086

 Al 
  0.9955299  0.0039132  0.5028637

 Al 
  0.9831877  0.2577645  0.7479184

 Al 
  0.2403668  0.0017846  0.7439384

 Al 
  0.2557361  0.2452317  0.4935535

 Al 
  0.0065591  0.5100799  0.5075850

 Al 
  0.9986684  0.7543872  0.7527363

 Al 
  0.2589859  0.4854327  0.7759950

 Al 
  0.2428419  0.7628100  0.4818969

 Al 
  0.5147047  0.4968875  0.0096951

 Al 
  0.4911217  0.7322435  0.2552250

 Al 
  0.7347928  0.5107012  0.2522029

 Al 
  0.7467316  0.7531669  0.0009603

 Al 
  0.4972192  0.9967588  0.4839142

 Al 
  0.5107829  0.2414534  0.7507116

 Al 
  0.7511645  0.0038092  0.7397555

 Al 
  0.7417393  0.2491250  0.4905351

 Al 
  0.5050270  0.4630192  0.5031892

 Al 
  0.4970571  0.7551619  0.7418420

 Al 
  0.7427343  0.5084674  0.7375390

 Al 
  0.7241399  0.7710435  0.4915970

