32 
charge = 0 
 Al 
  0.0078635  0.0056680  0.0109537

 Al 
  0.9957700  0.2415091  0.2574439

 Al 
  0.2633347  0.0042127  0.2394312

 Al 
  0.2637666  0.2482625  0.0050146

 Al 
  0.5087409  0.9849005  0.9947701

 Al 
  0.4891899  0.2703864  0.2555232

 Al 
  0.7462440  0.0047683  0.2351282

 Al 
  0.7609834  0.2688976  0.0097557

 Al 
  0.0153470  0.4814328  0.0271286

 Al 
  0.9986721  0.7535976  0.2328808

 Al 
  0.2583387  0.4980323  0.2680065

 Al 
  0.2558772  0.7522561  0.9988466

 Al 
  0.9929830  0.0045975  0.5024603

 Al 
  0.9742934  0.2597854  0.7509294

 Al 
  0.2410896  0.9990100  0.7423680

 Al 
  0.2609549  0.2390983  0.4997228

 Al 
  0.0119375  0.5140253  0.5175325

 Al 
  0.9976994  0.7527325  0.7533377

 Al 
  0.2615625  0.4831654  0.7786595

 Al 
  0.2401688  0.7679904  0.4819898

 Al 
  0.5089501  0.4952750  0.0038859

 Al 
  0.4897753  0.7295654  0.2501151

 Al 
  0.7282065  0.5025556  0.2510334

 Al 
  0.7513489  0.7512487  0.9954124

 Al 
  0.4952242  0.0012685  0.4746077

 Al 
  0.5069353  0.2415945  0.7487934

 Al 
  0.7507846  0.9987278  0.7322237

 Al 
  0.7484704  0.2472551  0.4920301

 Al 
  0.5037473  0.4660215  0.5061643

 Al 
  0.4966784  0.7566828  0.7468628

 Al 
  0.7455015  0.5050777  0.7391936

 Al 
  0.7295629  0.7703975  0.4977934

