32 
charge = 0 
 Al 
  0.0076246  0.0057287  0.0112309

 Al 
  0.9957403  0.2414460  0.2582001

 Al 
  0.2631256  0.0031892  0.2392481

 Al 
  0.2641243  0.2486115  0.0046112

 Al 
  0.5087718  0.9852000  0.9941538

 Al 
  0.4893310  0.2707613  0.2551272

 Al 
  0.7462749  0.0047473  0.2350156

 Al 
  0.7607024  0.2687454  0.0097384

 Al 
  0.0151267  0.4813759  0.0262487

 Al 
  0.9987476  0.7543055  0.2332904

 Al 
  0.2585330  0.4984271  0.2683704

 Al 
  0.2559861  0.7527041  0.9991733

 Al 
  0.9927838  0.0046347  0.5023328

 Al 
  0.9736535  0.2599104  0.7512314

 Al 
  0.2412294  0.9988070  0.7422912

 Al 
  0.2612519  0.2385637  0.5003676

 Al 
  0.0123459  0.5143000  0.5183122

 Al 
  0.9976276  0.7525642  0.7534181

 Al 
  0.2617420  0.4830417  0.7787486

 Al 
  0.2399621  0.7684001  0.4820863

 Al 
  0.5083647  0.4951525  0.0032647

 Al 
  0.4896824  0.7295023  0.2496473

 Al 
  0.7279046  0.5018464  0.2510160

 Al 
  0.7517870  0.7510433  0.9949062

 Al 
  0.4950646  0.0017128  0.4738874

 Al 
  0.5065789  0.2415314  0.7487191

 Al 
  0.7506980  0.9983231  0.7317076

 Al 
  0.7491436  0.2470583  0.4921563

 Al 
  0.5035506  0.4666539  0.5065529

 Al 
  0.4965856  0.7567608  0.7472786

 Al 
  0.7457490  0.5047980  0.7394065

 Al 
  0.7302077  0.7701537  0.4982612

