32 
charge = 0 
 Al 
  0.0087731  0.0054725  0.0095998

 Al 
  0.9960101  0.2418927  0.2544639

 Al 
  0.2640414  0.0083028  0.2401342

 Al 
  0.2622766  0.2466969  0.0066469

 Al 
  0.5085429  0.9839253  0.9972860

 Al 
  0.4888434  0.2683592  0.2568016

 Al 
  0.7460893  0.0048240  0.2356418

 Al 
  0.7619289  0.2692255  0.0097235

 Al 
  0.0161799  0.4818784  0.0305604

 Al 
  0.9982934  0.7507042  0.2314217

 Al 
  0.2572744  0.4964692  0.2664126

 Al 
  0.2554007  0.7503985  0.9975348

 Al 
  0.9938605  0.0044032  0.5028365

 Al 
  0.9771793  0.2591604  0.7497599

 Al 
  0.2406378  0.9999134  0.7428023

 Al 
  0.2594537  0.2413173  0.4972340

 Al 
  0.0101579  0.5127692  0.5141639

 Al 
  0.9980298  0.7533983  0.7530667

 Al 
  0.2607359  0.4838176  0.7780246

 Al 
  0.2410834  0.7662269  0.4817583

 Al 
  0.5112321  0.4958282  0.0062460

 Al 
  0.4902257  0.7301322  0.2520160

 Al 
  0.7299379  0.5054985  0.2512462

 Al 
  0.7496027  0.7520284  0.9974729

 Al 
  0.4959358  0.9995000  0.4777338

 Al 
  0.5083857  0.2417145  0.7492525

 Al 
  0.7510358  0.0004765  0.7346109

 Al 
  0.7458170  0.2480273  0.4915017

 Al 
  0.5044181  0.4640513  0.5047918

 Al 
  0.4969568  0.7562596  0.7450943

 Al 
  0.7444780  0.5062633  0.7384387

 Al 
  0.7271831  0.7710633  0.4957205

