32 
charge = 0 
 Al 
  0.0063673  0.0061247  0.0122098

 Al 
  0.9957787  0.2413816  0.2619450

 Al 
  0.2619239  0.9981956  0.2382753

 Al 
  0.2657826  0.2500334  0.0026942

 Al 
  0.5088411  0.9870167  0.9911985

 Al 
  0.4903037  0.2718343  0.2527697

 Al 
  0.7463628  0.0045963  0.2345391

 Al 
  0.7590503  0.2675721  0.0095131

 Al 
  0.0139634  0.4814279  0.0218120

 Al 
  0.9989976  0.7576716  0.2355675

 Al 
  0.2590280  0.5003787  0.2699718

 Al 
  0.2564489  0.7548005  0.0007574

 Al 
  0.9919336  0.0047423  0.5015432

 Al 
  0.9709952  0.2603064  0.7527796

 Al 
  0.2420548  0.9979135  0.7421217

 Al 
  0.2622543  0.2360799  0.5036520

 Al 
  0.0141849  0.5154002  0.5218170

 Al 
  0.9973405  0.7517413  0.7539008

 Al 
  0.2624326  0.4827063  0.7787387

 Al 
  0.2391057  0.7702341  0.4828115

 Al 
  0.5054205  0.4946636  0.0000285

 Al 
  0.4893941  0.7296730  0.2473875

 Al 
  0.7271967  0.4985211  0.2511225

 Al 
  0.7539515  0.7499678  0.9924682

 Al 
  0.4944508  0.0038587  0.4706958

 Al 
  0.5048797  0.2410141  0.7485632

 Al 
  0.7501139  0.9965224  0.7296495

 Al 
  0.7524528  0.2461042  0.4927615

 Al 
  0.5024368  0.4705448  0.5087174

 Al 
  0.4959977  0.7569749  0.7491523

 Al 
  0.7469148  0.5035134  0.7405920

 Al 
  0.7336394  0.7684830  0.5002413

