32 
charge = 0 
 Al 
  0.0066271  0.0060319  0.0120699

 Al 
  0.9957453  0.2413581  0.2612061

 Al 
  0.2621838  0.9991721  0.2384783

 Al 
  0.2654708  0.2497946  0.0030605

 Al 
  0.5088387  0.9866120  0.9917714

 Al 
  0.4900785  0.2717254  0.2532845

 Al 
  0.7463554  0.0046334  0.2346245

 Al 
  0.7594117  0.2678630  0.0095763

 Al 
  0.0142047  0.4813722  0.0226994

 Al 
  0.9989666  0.7570256  0.2350837

 Al 
  0.2589934  0.4999926  0.2696797

 Al 
  0.2563685  0.7544032  0.0004505

 Al 
  0.9920821  0.0047324  0.5017190

 Al 
  0.9714531  0.2602594  0.7524652

 Al 
  0.2418742  0.9980768  0.7421254

 Al 
  0.2621182  0.2365477  0.5029924

 Al 
  0.0138434  0.5152171  0.5211685

 Al 
  0.9973863  0.7519009  0.7537919

 Al 
  0.2623224  0.4827348  0.7788043

 Al 
  0.2392518  0.7698975  0.4826320

 Al 
  0.5060071  0.4947416  0.0006893

 Al 
  0.4894250  0.7295753  0.2478268

 Al 
  0.7272338  0.4991535  0.2510779

 Al 
  0.7535233  0.7501893  0.9929409

 Al 
  0.4945461  0.0034429  0.4712786

 Al 
  0.5052052  0.2411440  0.7485681

 Al 
  0.7502512  0.9968516  0.7299911

 Al 
  0.7518044  0.2462873  0.4926452

 Al 
  0.5026756  0.4696760  0.5082595

 Al 
  0.4961314  0.7569563  0.7488070

 Al 
  0.7466932  0.5037535  0.7403383

 Al 
  0.7329291  0.7688765  0.4998948

