32 
charge = 0 
 Al 
  0.0073808  0.0057943  0.0114821

 Al 
  0.9957217  0.2413989  0.2589562

 Al 
  0.2629053  0.0021719  0.2390612

 Al 
  0.2644745  0.2489394  0.0042127

 Al 
  0.5087966  0.9855218  0.9935461

 Al 
  0.4894919  0.2710831  0.2547027

 Al 
  0.7463022  0.0047238  0.2349092

 Al 
  0.7604042  0.2685672  0.0097112

 Al 
  0.0149027  0.4813413  0.0253638

 Al 
  0.9988157  0.7550047  0.2337162

 Al 
  0.2586964  0.4988206  0.2687181

 Al 
  0.2560900  0.7531434  0.9994988

 Al 
  0.9925920  0.0046681  0.5021930

 Al 
  0.9730496  0.2600205  0.7515358

 Al 
  0.2413779  0.9986115  0.7422281

 Al 
  0.2615168  0.2380390  0.5010198

 Al 
  0.0127407  0.5145562  0.5190659

 Al 
  0.9975595  0.7523947  0.7535023

 Al 
  0.2619078  0.4829377  0.7788092

 Al 
  0.2397666  0.7687961  0.4821977

 Al 
  0.5077756  0.4950361  0.0026335

 Al 
  0.4895995  0.7294726  0.2491832

 Al 
  0.7276570  0.5011497  0.2510123

 Al 
  0.7522239  0.7508341  0.9944037

 Al 
  0.4949161  0.0021534  0.4731944

 Al 
  0.5062262  0.2414546  0.7486610

 Al 
  0.7506015  0.9979320  0.7312262

 Al 
  0.7498156  0.2468615  0.4922813

 Al 
  0.5033451  0.4673383  0.5069576

 Al 
  0.4964841  0.7568276  0.7476820

 Al 
  0.7459928  0.5045245  0.7396268

 Al 
  0.7308673  0.7698802  0.4987055

