32 
charge = 0 
 Al 
  0.0034912  0.0075405  0.0119796

 Al 
  0.9969680  0.2427664  0.2688283

 Al 
  0.2589204  0.9894485  0.2359945

 Al 
  0.2682132  0.2509715  0.9996225

 Al 
  0.5086778  0.9920846  0.9859933

 Al 
  0.4930808  0.2702379  0.2468566

 Al 
  0.7460460  0.0038958  0.2339253

 Al 
  0.7546235  0.2631825  0.0084538

 Al 
  0.0112408  0.4831939  0.0130662

 Al 
  0.9986461  0.7632333  0.2411428

 Al 
  0.2575825  0.5039491  0.2722563

 Al 
  0.2567992  0.7580850  0.0033253

 Al 
  0.9911032  0.0044305  0.4995409

 Al 
  0.9684310  0.2596777  0.7560084

 Al 
  0.2441971  0.9965497  0.7430387

 Al 
  0.2619313  0.2324712  0.5100416

 Al 
  0.0169979  0.5161477  0.5269244

 Al 
  0.9972588  0.7504480  0.7553871

 Al 
  0.2626231  0.4836295  0.7761670

 Al 
  0.2385253  0.7727538  0.4856826

 Al 
  0.4998960  0.4945646  0.9932231

 Al 
  0.4901403  0.7323561  0.2433469

 Al 
  0.7295381  0.4932219  0.2521039

 Al 
  0.7580281  0.7476672  0.9883162

 Al 
  0.4945436  0.0073957  0.4662999

 Al 
  0.5021447  0.2390575  0.7490458

 Al 
  0.7482154  0.9940374  0.7281484

 Al 
  0.7582298  0.2446958  0.4939310

 Al 
  0.4996312  0.4813376  0.5137394

 Al 
  0.4942713  0.7564923  0.7517091

 Al 
  0.7487810  0.5015643  0.7435907

 Al 
  0.7412244  0.7629140  0.5023118

