32 
charge = 0 
 Al 
  0.0041099  0.0071779  0.0122680

 Al 
  0.9965905  0.2423110  0.2675449

 Al 
  0.2595750  0.9910215  0.2364833

 Al 
  0.2678444  0.2510024  0.0001423

 Al 
  0.5087335  0.9909299  0.9869573

 Al 
  0.4924744  0.2709247  0.2481177

 Al 
  0.7461722  0.0040951  0.2340169

 Al 
  0.7556247  0.2642740  0.0087298

 Al 
  0.0118385  0.4826630  0.0147938

 Al 
  0.9988243  0.7622605  0.2399213

 Al 
  0.2581234  0.5032870  0.2718851

 Al 
  0.2568041  0.7575380  0.0029058

 Al 
  0.9911712  0.0045604  0.4999592

 Al 
  0.9686488  0.2599785  0.7553487

 Al 
  0.2437268  0.9967972  0.7427046

 Al 
  0.2622358  0.2330206  0.5088139

 Al 
  0.0165165  0.5161613  0.5260952

 Al 
  0.9972118  0.7506510  0.7550270

 Al 
  0.2627271  0.4832607  0.7769764

 Al 
  0.2384981  0.7723776  0.4849352

 Al 
  0.5009294  0.4944718  0.9945968

 Al 
  0.4898087  0.7315801  0.2441043

 Al 
  0.7286929  0.4941265  0.2518390

 Al 
  0.7572521  0.7481387  0.9890550

 Al 
  0.4943580  0.0067917  0.4669769

 Al 
  0.5026051  0.2395339  0.7488911

 Al 
  0.7486696  0.9944285  0.7281781

 Al 
  0.7572039  0.2448975  0.4936872

 Al 
  0.5002512  0.4788958  0.5126949

 Al 
  0.4946698  0.7566866  0.7513304

 Al 
  0.7484617  0.5018935  0.7429199

 Al 
  0.7396441  0.7642666  0.5020977

