32 
charge = 0 
 Al 
  0.0044107  0.0070133  0.0123670

 Al 
  0.9964296  0.2421180  0.2668828

 Al 
  0.2598931  0.9918457  0.2367222

 Al 
  0.2676340  0.2509764  0.0004208

 Al 
  0.5087582  0.9903780  0.9874536

 Al 
  0.4921774  0.2712019  0.2487377

 Al 
  0.7462230  0.0041817  0.2340676

 Al 
  0.7561049  0.2647814  0.0088560

 Al 
  0.0121256  0.4824303  0.0156614

 Al 
  0.9988911  0.7617457  0.2393310

 Al 
  0.2583486  0.5029442  0.2716846

 Al 
  0.2567905  0.7572422  0.0026744

 Al 
  0.9912244  0.0046124  0.5001683

 Al 
  0.9688147  0.2600936  0.7550220

 Al 
  0.2434978  0.9969234  0.7425672

 Al 
  0.2623447  0.2333300  0.5081877

 Al 
  0.0162616  0.5161366  0.5256448

 Al 
  0.9972019  0.7507648  0.7548587

 Al 
  0.2627506  0.4831122  0.7773229

 Al 
  0.2385142  0.7721647  0.4845961

 Al 
  0.5014628  0.4944483  0.9952836

 Al 
  0.4896812  0.7312348  0.2444928

 Al 
  0.7283389  0.4946079  0.2517177

 Al 
  0.7568549  0.7483726  0.9894436

 Al 
  0.4942985  0.0064687  0.4673531

 Al 
  0.5028538  0.2397579  0.7488218

 Al 
  0.7488837  0.9946414  0.7282437

 Al 
  0.7566630  0.2450163  0.4935684

 Al 
  0.5005495  0.4777251  0.5121764

 Al 
  0.4948604  0.7567658  0.7511163

 Al 
  0.7482922  0.5020680  0.7425981

 Al 
  0.7388657  0.7648978  0.5019541

