32 
charge = 0 
 Al 
  0.0021855  0.0083907  0.0110217

 Al 
  0.9979741  0.2439644  0.2712044

 Al 
  0.2575491  0.9866479  0.2349970

 Al 
  0.2687206  0.2505792  0.9987303

 Al 
  0.5085379  0.9945622  0.9841926

 Al 
  0.4943146  0.2683840  0.2442985

 Al 
  0.7456908  0.0033823  0.2337966

 Al 
  0.7524590  0.2606963  0.0077979

 Al 
  0.0099550  0.4845156  0.0096592

 Al 
  0.9981016  0.7649411  0.2437379

 Al 
  0.2561556  0.5051643  0.2728702

 Al 
  0.2566606  0.7589798  0.0039751

 Al 
  0.9911168  0.0040493  0.4987204

 Al 
  0.9684508  0.2587817  0.7573462

 Al 
  0.2451834  0.9960695  0.7439533

 Al 
  0.2609784  0.2316766  0.5123744

 Al 
  0.0178407  0.5158643  0.5282981

 Al 
  0.9974741  0.7501572  0.7562089

 Al 
  0.2621702  0.4846517  0.7740793

 Al 
  0.2388298  0.7733033  0.4874697

 Al 
  0.4979852  0.4949470  0.9905128

 Al 
  0.4911329  0.7342409  0.2419014

 Al 
  0.7317497  0.4916588  0.2527177

 Al 
  0.7594933  0.7467266  0.9870019

 Al 
  0.4951896  0.0084191  0.4652431

 Al 
  0.5013749  0.2380204  0.7493800

 Al 
  0.7472056  0.9933840  0.7284738

 Al 
  0.7600168  0.2444458  0.4944631

 Al 
  0.4983120  0.4865873  0.5158284

 Al 
  0.4934100  0.7559638  0.7522561

 Al 
  0.7493231  0.5009801  0.7450423

 Al 
  0.7444607  0.7598646  0.5024491

