32 
charge = 0 
 Al 
  0.0031731  0.0077372  0.0117878

 Al 
  0.9971870  0.2430300  0.2694483

 Al 
  0.2585850  0.9887023  0.2357470

 Al 
  0.2683704  0.2509146  0.9993800

 Al 
  0.5086456  0.9926848  0.9855267

 Al 
  0.4933877  0.2698319  0.2462192

 Al 
  0.7459693  0.0037820  0.2338857

 Al 
  0.7541013  0.2625971  0.0083028

 Al 
  0.0109302  0.4834922  0.0122073

 Al 
  0.9985335  0.7636912  0.2417727

 Al 
  0.2572670  0.5042671  0.2724259

 Al 
  0.2567818  0.7583337  0.0035134

 Al 
  0.9910871  0.0043500  0.4993317

 Al 
  0.9683778  0.2594909  0.7563413

 Al 
  0.2444396  0.9964284  0.7432355

 Al 
  0.2617358  0.2322336  0.5106418

 Al 
  0.0172232  0.5161081  0.5273043

 Al 
  0.9972972  0.7503601  0.7555802

 Al 
  0.2625415  0.4838498  0.7757029

 Al 
  0.2385699  0.7729172  0.4860923

 Al 
  0.4993961  0.4946352  0.9925400

 Al 
  0.4903458  0.7327880  0.2429768

 Al 
  0.7300270  0.4927999  0.2522462

 Al 
  0.7584068  0.7474321  0.9879659

 Al 
  0.4946711  0.0076754  0.4659992

 Al 
  0.5019318  0.2388075  0.7491275

 Al 
  0.7479753  0.9938592  0.7281830

 Al 
  0.7587124  0.2446129  0.4940585

 Al 
  0.4993107  0.4826073  0.5142629

 Al 
  0.4940634  0.7563772  0.7518712

 Al 
  0.7489283  0.5014096  0.7439409

 Al 
  0.7420251  0.7621937  0.5023811

