32 
charge = 0 
 Al 
  0.0047065  0.0068586  0.0124338

 Al 
  0.9962886  0.2419472  0.2662084

 Al 
  0.2602037  0.9926934  0.2369573

 Al 
  0.2674100  0.2509220  0.0007116

 Al 
  0.5087805  0.9898421  0.9879598

 Al 
  0.4918865  0.2714358  0.2493490

 Al 
  0.7462650  0.0042609  0.2341233

 Al 
  0.7565690  0.2652616  0.0089736

 Al 
  0.0124066  0.4822212  0.0165326

 Al 
  0.9989444  0.7612148  0.2387530

 Al 
  0.2585417  0.5025952  0.2714729

 Al 
  0.2567682  0.7569328  0.0024318

 Al 
  0.9912888  0.0046545  0.5003750

 Al 
  0.9690164  0.2601864  0.7546965

 Al 
  0.2432751  0.9970521  0.7424496

 Al 
  0.2624227  0.2336617  0.5075553

 Al 
  0.0159967  0.5160920  0.5251708

 Al 
  0.9971994  0.7508861  0.7546990

 Al 
  0.2627568  0.4829860  0.7776323

 Al 
  0.2385488  0.7719358  0.4842792

 Al 
  0.5020061  0.4944384  0.9959693

 Al 
  0.4895785  0.7309205  0.2448864

 Al 
  0.7280308  0.4951104  0.2516064

 Al 
  0.7564514  0.7486053  0.9898433

 Al 
  0.4942602  0.0061321  0.4677541

 Al 
  0.5031125  0.2399720  0.7487587

 Al 
  0.7490879  0.9948678  0.7283414

 Al 
  0.7561049  0.2451450  0.4934521

 Al 
  0.5008415  0.4765878  0.5116628

 Al 
  0.4950436  0.7568326  0.7508861

 Al 
  0.7481152  0.5022511  0.7422863

 Al 
  0.7380934  0.7654992  0.5017858

