32 
charge = 0 
 Al 
  0.0025197  0.0081617  0.0113088

 Al 
  0.9976895  0.2436290  0.2706376

 Al 
  0.2578994  0.9873001  0.2352470

 Al 
  0.2686253  0.2507178  0.9989345

 Al 
  0.5085763  0.9939248  0.9846258

 Al 
  0.4940052  0.2689038  0.2449384

 Al 
  0.7457923  0.0035258  0.2338213

 Al 
  0.7530184  0.2613534  0.0079749

 Al 
  0.0102879  0.4841530  0.0105020

 Al 
  0.9982612  0.7645451  0.2430709

 Al 
  0.2565529  0.5048760  0.2727328

 Al 
  0.2567125  0.7587830  0.0038389

 Al 
  0.9910945  0.0041607  0.4989208

 Al 
  0.9683877  0.2590441  0.7570108

 Al 
  0.2449334  0.9961883  0.7436934

 Al 
  0.2612593  0.2318351  0.5118088

 Al 
  0.0176452  0.5159670  0.5279912

 Al 
  0.9974036  0.7502141  0.7559910

 Al 
  0.2623150  0.4843622  0.7746597

 Al 
  0.2387209  0.7731919  0.4869858

 Al 
  0.4984407  0.4948258  0.9911824

 Al 
  0.4908408  0.7337310  0.2422529

 Al 
  0.7311334  0.4920177  0.2525543

 Al 
  0.7591406  0.7469605  0.9873088

 Al 
  0.4949941  0.0081877  0.4654695

 Al 
  0.5015470  0.2382877  0.7492958

 Al 
  0.7474692  0.9935325  0.7283451

 Al 
  0.7596072  0.2444867  0.4943233

 Al 
  0.4986511  0.4852334  0.5153099

 Al 
  0.4936315  0.7561123  0.7521459

 Al 
  0.7492005  0.5011188  0.7446661

 Al 
  0.7436439  0.7606690  0.5024504

