32 
charge = 0 
 Al 
  0.9983540  0.0113806  0.0060220

 Al 
  0.0025481  0.2489802  0.2757388

 Al 
  0.2536619  0.9821878  0.2326506

 Al 
  0.2679595  0.2476474  0.9973207

 Al 
  0.5080033  0.0015791  0.9804416

 Al 
  0.4973442  0.2610304  0.2378929

 Al 
  0.7441921  0.0011410  0.2339043

 Al 
  0.7459643  0.2525370  0.0053203

 Al 
  0.0059935  0.4895995  0.0012388

 Al 
  0.9953455  0.7675957  0.2513910

 Al 
  0.2505606  0.5074637  0.2734939

 Al 
  0.2552980  0.7597112  0.0040889

 Al 
  0.9921093  0.0021892  0.4970398

 Al 
  0.9717304  0.2543674  0.7609128

 Al 
  0.2478306  0.9948332  0.7480298

 Al 
  0.2563809  0.2318054  0.5174261

 Al 
  0.0191797  0.5134065  0.5299911

 Al 
  0.9990458  0.7503515  0.7589402

 Al 
  0.2591406  0.4890463  0.7655920

 Al 
  0.2414583  0.7733404  0.4941822

 Al 
  0.4942787  0.4973034  0.9840924

 Al 
  0.4961735  0.7410079  0.2385352

 Al 
  0.7405982  0.4892344  0.2547782

 Al 
  0.7624375  0.7444112  0.9848572

 Al 
  0.4986412  0.0097359  0.4644758

 Al 
  0.5004666  0.2352866  0.7498478

 Al 
  0.7440906  0.9921749  0.7315875

 Al 
  0.7624833  0.2449916  0.4963504

 Al 
  0.4944941  0.5022251  0.5208542

 Al 
  0.4909311  0.7538649  0.7523675

 Al 
  0.7500322  0.4997475  0.7495235

 Al 
  0.7532709  0.7498255  0.5011126

