32 
charge = 0 
 Al 
  0.9990446  0.0108064  0.0071358

 Al 
  0.0015432  0.2479296  0.2751906

 Al 
  0.2543463  0.9825850  0.2329798

 Al 
  0.2683667  0.2483157  0.9974692

 Al 
  0.5081184  0.0003861  0.9809539

 Al 
  0.4968752  0.2624969  0.2389090

 Al 
  0.7444916  0.0016262  0.2338288

 Al 
  0.7471289  0.2540691  0.0058326

 Al 
  0.0067249  0.4885699  0.0025927

 Al 
  0.9959569  0.7673692  0.2500223

 Al 
  0.2516769  0.5071791  0.2735174

 Al 
  0.2556507  0.7597928  0.0042659

 Al 
  0.9918408  0.0025964  0.4972415

 Al 
  0.9708022  0.2553500  0.7603114

 Al 
  0.2473962  0.9950374  0.7471548

 Al 
  0.2573734  0.2315306  0.5166984

 Al 
  0.0190647  0.5140117  0.5299156

 Al 
  0.9986511  0.7502079  0.7584266

 Al 
  0.2598770  0.4881293  0.7673370

 Al 
  0.2408037  0.7734926  0.4928209

 Al 
  0.4947527  0.4967576  0.9850725

 Al 
  0.4950374  0.7396911  0.2390637

 Al 
  0.7387926  0.4894560  0.2543884

 Al 
  0.7620638  0.7447750  0.9850589

 Al 
  0.4978776  0.0096691  0.4643755

 Al 
  0.5004938  0.2357024  0.7498639

 Al 
  0.7446475  0.9923457  0.7308376

 Al 
  0.7623410  0.2447614  0.4959569

 Al 
  0.4951611  0.4994072  0.5200894

 Al 
  0.4913556  0.7542795  0.7524863

 Al 
  0.7499901  0.4999381  0.7486968

 Al 
  0.7517536  0.7517326  0.5015049

