32 
charge = 0 
 Al 
  0.9993961  0.0105193  0.0076667

 Al 
  0.0010643  0.2474209  0.2748663

 Al 
  0.2546965  0.9828560  0.2331654

 Al 
  0.2685238  0.2486374  0.9975608

 Al 
  0.5081716  0.9997649  0.9812423

 Al 
  0.4966239  0.2632221  0.2394485

 Al 
  0.7446414  0.0018588  0.2338003

 Al 
  0.7477229  0.2548389  0.0060801

 Al 
  0.0070937  0.4880649  0.0033080

 Al 
  0.9962489  0.7672095  0.2493243

 Al 
  0.2522289  0.5070133  0.2735038

 Al 
  0.2558104  0.7597965  0.0043216

 Al 
  0.9917182  0.0027932  0.4973640

 Al 
  0.9703888  0.2558165  0.7599995

 Al 
  0.2471672  0.9951450  0.7467353

 Al 
  0.2578523  0.2314328  0.5162999

 Al 
  0.0189830  0.5142926  0.5298389

 Al 
  0.9984716  0.7501522  0.7581679

 Al 
  0.2602173  0.4876838  0.7681897

 Al 
  0.2405017  0.7735434  0.4921551

 Al 
  0.4950250  0.4964989  0.9856010

 Al 
  0.4944990  0.7390364  0.2393433

 Al 
  0.7379090  0.4896045  0.2541929

 Al 
  0.7618459  0.7449693  0.9851926

 Al 
  0.4975125  0.0096084  0.4643656

 Al 
  0.5005297  0.2359314  0.7498503

 Al 
  0.7449334  0.9924385  0.7304849

 Al 
  0.7622172  0.2446661  0.4957688

 Al 
  0.4955052  0.4979766  0.5196748

 Al 
  0.4915771  0.7544862  0.7525246

 Al 
  0.7499554  0.5000384  0.7482798

 Al 
  0.7509715  0.7526843  0.5016806

