32 
charge = 0 
 Al 
  0.0011559  0.0091344  0.0099748

 Al 
  0.9989654  0.2451079  0.2727761

 Al 
  0.2564836  0.9849092  0.2342607

 Al 
  0.2688567  0.2500099  0.9981956

 Al 
  0.5084142  0.9965163  0.9829687

 Al 
  0.4952255  0.2666304  0.2424026

 Al 
  0.7453393  0.0028885  0.2337520

 Al 
  0.7507190  0.2586035  0.0072138

 Al 
  0.0089179  0.4857235  0.0071754

 Al 
  0.9975212  0.7659868  0.2457985

 Al 
  0.2548191  0.5059601  0.2732105

 Al 
  0.2564328  0.7594525  0.0042659

 Al 
  0.9912566  0.0036520  0.4981486

 Al 
  0.9688815  0.2578461  0.7583573

 Al 
  0.2459420  0.9957156  0.7448567

 Al 
  0.2599772  0.2313673  0.5139832

 Al 
  0.0183630  0.5154262  0.5290703

 Al 
  0.9977538  0.7500594  0.7569056

 Al 
  0.2616034  0.4856529  0.7721115

 Al 
  0.2392914  0.7735298  0.4890674

 Al 
  0.4967217  0.4954111  0.9885575

 Al 
  0.4921823  0.7359104  0.2408829

 Al 
  0.7338251  0.4907121  0.2532424

 Al 
  0.7604859  0.7460348  0.9861814

 Al 
  0.4959136  0.0090082  0.4647159

 Al 
  0.5009430  0.2372098  0.7496126

 Al 
  0.7463752  0.9929830  0.7290345

 Al 
  0.7610811  0.2444112  0.4949111

 Al 
  0.4972675  0.4907789  0.5173543

 Al 
  0.4927244  0.7554614  0.7524838

 Al 
  0.7496337  0.5005965  0.7462168

 Al 
  0.7469247  0.7573053  0.5023130

