32 
charge = 0 
 Al 
  0.9970348  0.0124796  0.0036619

 Al 
  0.0046990  0.2511460  0.2764220

 Al 
  0.2523823  0.9819601  0.2321915

 Al 
  0.2667950  0.2462663  0.9971301

 Al 
  0.5077434  0.0036978  0.9796928

 Al 
  0.4981251  0.2581135  0.2361517

 Al 
  0.7436142  0.0001163  0.2341196

 Al 
  0.7437887  0.2495730  0.0042362

 Al 
  0.0045901  0.4916947  0.9988664

 Al 
  0.9940585  0.7676910  0.2539453

 Al 
  0.2483404  0.5078610  0.2732476

 Al 
  0.2544750  0.7592495  0.0034961

 Al 
  0.9927244  0.0013514  0.4968195

 Al 
  0.9739295  0.2522623  0.7619932

 Al 
  0.2485818  0.9944867  0.7498589

 Al 
  0.2543129  0.2326221  0.5185907

 Al 
  0.0192132  0.5120563  0.5298611

 Al 
  0.9999517  0.7507425  0.7599240

 Al 
  0.2574848  0.4909311  0.7620724

 Al 
  0.2429372  0.7728516  0.4969482

 Al 
  0.4936043  0.4984803  0.9824613

 Al 
  0.4986251  0.7435969  0.2376120

 Al 
  0.7442701  0.4890785  0.2555257

 Al 
  0.7629263  0.7437924  0.9847211

 Al 
  0.5002364  0.0096604  0.4649844

 Al 
  0.5005792  0.2346530  0.7496275

 Al 
  0.7430721  0.9918952  0.7332088

 Al 
  0.7623707  0.2455782  0.4971969

 Al 
  0.4932813  0.5075714  0.5220942

 Al 
  0.4901750  0.7530580  0.7519925

 Al 
  0.7500173  0.4994060  0.7511175

 Al 
  0.7560616  0.7460806  0.5002289

