32 
charge = 0 
 Al 
  0.9976820  0.0119412  0.0048574

 Al 
  0.0036050  0.2500582  0.2761485

 Al 
  0.2530060  0.9819811  0.2323870

 Al 
  0.2674335  0.2469581  0.9972093

 Al 
  0.5078796  0.0026892  0.9800196

 Al 
  0.4977612  0.2595614  0.2369709

 Al 
  0.7438963  0.0006349  0.2340008

 Al 
  0.7448456  0.2510309  0.0047869

 Al 
  0.0052782  0.4906453  0.9999938

 Al 
  0.9947082  0.7677021  0.2527053

 Al 
  0.2494419  0.5076890  0.2734048

 Al 
  0.2549045  0.7595292  0.0038303

 Al 
  0.9924063  0.0017710  0.4968987

 Al 
  0.9727773  0.2533340  0.7614759

 Al 
  0.2482266  0.9946475  0.7489345

 Al 
  0.2553549  0.2321729  0.5180560

 Al 
  0.0192305  0.5127518  0.5299713

 Al 
  0.9994827  0.7505309  0.7594414

 Al 
  0.2583399  0.4899856  0.7638273

 Al 
  0.2421737  0.7731251  0.4955633

 Al 
  0.4938976  0.4978813  0.9832199

 Al 
  0.4973751  0.7423160  0.2380513

 Al 
  0.7424335  0.4891095  0.2551594

 Al 
  0.7627259  0.7440820  0.9847458

 Al 
  0.4994332  0.0097310  0.4646800

 Al 
  0.5004975  0.2349339  0.7497698

 Al 
  0.7435622  0.9920251  0.7323833

 Al 
  0.7624907  0.2452676  0.4967650

 Al 
  0.4938642  0.5049552  0.5215249

 Al 
  0.4905351  0.7534540  0.7522004

 Al 
  0.7500396  0.4995706  0.7503341

 Al 
  0.7547114  0.7479333  0.5006831

