32 
charge = 0 
 Al 
  0.9952737  0.0138434  0.0000594

 Al 
  0.0080578  0.2543339  0.2764727

 Al 
  0.2507388  0.9828857  0.2320318

 Al 
  0.2642864  0.2443258  0.9970051

 Al 
  0.5072422  0.0060170  0.9792708

 Al 
  0.4988911  0.2540431  0.2343164

 Al 
  0.7429150  0.9985657  0.2345824

 Al 
  0.7410821  0.2456314  0.0025036

 Al 
  0.0027363  0.4947515  0.9961994

 Al 
  0.9921402  0.7669905  0.2571135

 Al 
  0.2452725  0.5081159  0.2723813

 Al 
  0.2530172  0.7578882  0.0021422

 Al 
  0.9937392  0.0001634  0.4969618

 Al 
  0.9778575  0.2489741  0.7632345

 Al 
  0.2493775  0.9941822  0.7526372

 Al 
  0.2512215  0.2343399  0.5196624

 Al 
  0.0187429  0.5098027  0.5290580

 Al 
  0.0014925  0.7515296  0.7612024

 Al 
  0.2547114  0.4936946  0.7571271

 Al 
  0.2454396  0.7717365  0.5009740

 Al 
  0.4931786  0.5002908  0.9808611

 Al 
  0.5025011  0.7471338  0.2365551

 Al 
  0.7496151  0.4894622  0.2564799

 Al 
  0.7630068  0.7431810  0.9851257

 Al 
  0.5026001  0.0090986  0.4664658

 Al 
  0.5010680  0.2343127  0.7488181

 Al 
  0.7419026  0.9915759  0.7357371

 Al 
  0.7613583  0.2466573  0.4985743

 Al 
  0.4918655  0.5145748  0.5231251

 Al 
  0.4893669  0.7520420  0.7512066

 Al 
  0.7498045  0.4989580  0.7532560

 Al 
  0.7594971  0.7409002  0.4988590

