32 
charge = 0 
 Al 
  0.9961190  0.0132159  0.0018502

 Al 
  0.0063734  0.2527660  0.2765841

 Al 
  0.2515185  0.9822496  0.2320318

 Al 
  0.2656440  0.2452601  0.9970521

 Al 
  0.5075132  0.0049960  0.9793785

 Al 
  0.4985669  0.2560170  0.2351183

 Al 
  0.7432293  0.9993342  0.2343312

 Al 
  0.7423420  0.2475113  0.0033847

 Al 
  0.0036199  0.4932479  0.9974011

 Al 
  0.9930845  0.7674595  0.2556396

 Al 
  0.2467526  0.5080293  0.2728862

 Al 
  0.2537733  0.7586605  0.0028761

 Al 
  0.9932256  0.0007376  0.4968219

 Al 
  0.9758168  0.2506213  0.7626739

 Al 
  0.2490310  0.9942985  0.7512549

 Al 
  0.2527511  0.2334216  0.5192206

 Al 
  0.0190572  0.5109549  0.5295431

 Al 
  0.0007042  0.7511101  0.7605985

 Al 
  0.2561272  0.4923358  0.7595230

 Al 
  0.2441562  0.7723430  0.4989963

 Al 
  0.4933134  0.4993899  0.9815368

 Al 
  0.5005520  0.7454334  0.2370365

 Al 
  0.7469853  0.4891887  0.2560331

 Al 
  0.7630612  0.7434372  0.9848386

 Al 
  0.5014368  0.0094401  0.4656218

 Al 
  0.5007846  0.2343844  0.7492946

 Al 
  0.7424261  0.9917257  0.7344735

 Al 
  0.7619747  0.2460967  0.4978726

 Al 
  0.4925066  0.5112395  0.5227402

 Al 
  0.4897171  0.7525085  0.7516224

 Al 
  0.7499344  0.4991770  0.7522289

 Al 
  0.7578981  0.7434087  0.4995334

