32 
charge = 0 
 Al 
  0.9930857  0.0148916  0.9950361

 Al 
  0.0129573  0.2584959  0.2747265

 Al 
  0.2487488  0.9864524  0.2329476

 Al 
  0.2591072  0.2421650  0.9968690

 Al 
  0.5060554  0.0073610  0.9800468

 Al 
  0.4992587  0.2489679  0.2331716

 Al 
  0.7426217  0.9964692  0.2355824

 Al 
  0.7384696  0.2411378  0.9996275

 Al 
  0.0005557  0.4989246  0.9939446

 Al 
  0.9897097  0.7643273  0.2602223

 Al 
  0.2416316  0.5081667  0.2700522

 Al 
  0.2504876  0.7546421  0.9995706

 Al 
  0.9952861  0.9987352  0.4981189

 Al 
  0.9847149  0.2442008  0.7641750

 Al 
  0.2498193  0.9943109  0.7565727

 Al 
  0.2469395  0.2375773  0.5200770

 Al 
  0.0167739  0.5061012  0.5267078

 Al 
  0.0039194  0.7530852  0.7624870

 Al 
  0.2502995  0.4974308  0.7511138

 Al 
  0.2495075  0.7694483  0.5063425

 Al 
  0.4934298  0.5028018  0.9801606

 Al 
  0.5082422  0.7513428  0.2355675

 Al 
  0.7569477  0.4909955  0.2574118

 Al 
  0.7618410  0.7430028  0.9868484

 Al 
  0.5057250  0.0074402  0.4702651

 Al 
  0.5021818  0.2353411  0.7465522

 Al 
  0.7411663  0.9910896  0.7394003

 Al 
  0.7585132  0.2485137  0.5007896

 Al 
  0.4907492  0.5226400  0.5226041

 Al 
  0.4890451  0.7513341  0.7499220

 Al 
  0.7492302  0.4982204  0.7558289

 Al 
  0.7629820  0.7343906  0.4972588

