32 
charge = 0 
 Al 
  0.9935350  0.0147790  0.9960967

 Al 
  0.0118967  0.2576543  0.2752871

 Al 
  0.2491646  0.9854747  0.2326283

 Al 
  0.2604017  0.2425523  0.9969098

 Al 
  0.5063784  0.0072831  0.9797423

 Al 
  0.4992451  0.2499889  0.2332743

 Al 
  0.7425821  0.9968999  0.2353250

 Al 
  0.7389015  0.2419930  0.0003057

 Al 
  0.0009863  0.4980360  0.9942924

 Al 
  0.9901812  0.7650710  0.2596951

 Al 
  0.2423321  0.5081592  0.2706760

 Al 
  0.2510829  0.7554750  0.0001683

 Al 
  0.9949408  0.9990149  0.4977724

 Al 
  0.9830949  0.2452329  0.7640624

 Al 
  0.2497958  0.9942144  0.7557287

 Al 
  0.2478516  0.2368051  0.5200844

 Al 
  0.0173543  0.5069551  0.5273427

 Al 
  0.0033785  0.7527028  0.7622766

 Al 
  0.2512982  0.4966400  0.7522969

 Al 
  0.2485855  0.7700126  0.5052225

 Al 
  0.4933085  0.5022709  0.9801569

 Al 
  0.5069898  0.7505198  0.2357383

 Al 
  0.7553772  0.4905821  0.2572608

 Al 
  0.7622222  0.7429682  0.9863621

 Al 
  0.5050802  0.0078882  0.4692453

 Al 
  0.5019120  0.2349488  0.7471647

 Al 
  0.7412195  0.9912108  0.7386045

 Al 
  0.7592557  0.2480793  0.5002822

 Al 
  0.4908940  0.5210819  0.5229456

 Al 
  0.4890166  0.7513898  0.7501955

 Al 
  0.7493750  0.4984035  0.7553166

 Al 
  0.7623620  0.7357161  0.4975373

