32 
charge = 0 
 Al 
  0.9947465  0.0141899  0.9988911

 Al 
  0.0091728  0.2553364  0.2762598

 Al 
  0.2502599  0.9834798  0.2321185

 Al 
  0.2632778  0.2437565  0.9969816

 Al 
  0.5070318  0.0065380  0.9793055

 Al 
  0.4990458  0.2528056  0.2339043

 Al 
  0.7427553  0.9980682  0.2347718

 Al 
  0.7403507  0.2444854  0.0018984

 Al 
  0.0021930  0.4957217  0.9955349

 Al 
  0.9915400  0.7665549  0.2579724

 Al 
  0.2443567  0.5081419  0.2719692

 Al 
  0.2524875  0.7572818  0.0016076

 Al 
  0.9940832  0.9998069  0.4971264

 Al 
  0.9792882  0.2478875  0.7635389

 Al 
  0.2495508  0.9941463  0.7535419

 Al 
  0.2502289  0.2350032  0.5198629

 Al 
  0.0184434  0.5090107  0.5286496

 Al 
  0.0020284  0.7518378  0.7615588

 Al 
  0.2537498  0.4945696  0.7556359

 Al 
  0.2463220  0.7712848  0.5022425

 Al 
  0.4931600  0.5008750  0.9805406

 Al 
  0.5037981  0.7481857  0.2362816

 Al 
  0.7513118  0.4897208  0.2567410

 Al 
  0.7628731  0.7430659  0.9854017

 Al 
  0.5033439  0.0088102  0.4671427

 Al 
  0.5012871  0.2343782  0.7484233

 Al 
  0.7416291  0.9914769  0.7365712

 Al 
  0.7608435  0.2470484  0.4990533

 Al 
  0.4915128  0.5166118  0.5232303

 Al 
  0.4891986  0.7517883  0.7509170

 Al 
  0.7496968  0.4988095  0.7538909

 Al 
  0.7604339  0.7393260  0.4984370

