32 
charge = 0 
 Al 
  0.9928667  0.0149188  0.9945188

 Al 
  0.0134808  0.2588968  0.2744097

 Al 
  0.2485409  0.9869759  0.2331320

 Al 
  0.2584266  0.2419917  0.9968442

 Al 
  0.5058772  0.0073524  0.9802262

 Al 
  0.4992525  0.2484790  0.2331506

 Al 
  0.7426674  0.9962626  0.2357210

 Al 
  0.7382840  0.2407393  0.9992785

 Al 
  0.0003490  0.4993627  0.9937986

 Al 
  0.9894919  0.7639238  0.2604537

 Al 
  0.2413036  0.5081741  0.2697156

 Al 
  0.2501819  0.7542015  0.9992698

 Al 
  0.9954594  0.9986028  0.4983095

 Al 
  0.9855477  0.2436909  0.7642085

 Al 
  0.2498168  0.9943740  0.7569885

 Al 
  0.2464915  0.2379734  0.5200547

 Al 
  0.0164484  0.5056656  0.5263650

 Al 
  0.0041891  0.7532833  0.7625736

 Al 
  0.2497958  0.4978207  0.7505532

 Al 
  0.2499715  0.7691550  0.5068883

 Al 
  0.4935016  0.5030605  0.9801965

 Al 
  0.5088634  0.7517313  0.2354896

 Al 
  0.7577249  0.4912145  0.2574736

 Al 
  0.7616257  0.7430362  0.9871145

 Al 
  0.5060381  0.0071989  0.4708170

 Al 
  0.5023204  0.2355725  0.7462205

 Al 
  0.7411626  0.9910240  0.7397938

 Al 
  0.7581209  0.2487352  0.5010482

 Al 
  0.4906985  0.5233751  0.5223813

 Al 
  0.4890835  0.7513316  0.7497921

 Al 
  0.7491547  0.4981239  0.7560727

 Al 
  0.7632617  0.7337520  0.4971412

