32 
charge = 0 
 Al 
  0.9933085  0.0148446  0.9955621

 Al 
  0.0124288  0.2580813  0.2750198

 Al 
  0.2489555  0.9859512  0.2327806

 Al 
  0.2597644  0.2423519  0.9968900

 Al 
  0.5062212  0.0073375  0.9798847

 Al 
  0.4992562  0.2494703  0.2332125

 Al 
  0.7425932  0.9966821  0.2354512

 Al 
  0.7386751  0.2415549  0.9999703

 Al 
  0.0007673  0.4984827  0.9941092

 Al 
  0.9899399  0.7647097  0.2599698

 Al 
  0.2419744  0.5081617  0.2703715

 Al 
  0.2507883  0.7550666  0.9998701

 Al 
  0.9951129  0.9988726  0.4979395

 Al 
  0.9838968  0.2447144  0.7641255

 Al 
  0.2498131  0.9942577  0.7561532

 Al 
  0.2473937  0.2371875  0.5200869

 Al 
  0.0170746  0.5065306  0.5270333

 Al 
  0.0036496  0.7528909  0.7623880

 Al 
  0.2507995  0.4970385  0.7516942

 Al 
  0.2490458  0.7697342  0.5057881

 Al 
  0.4933654  0.5025382  0.9801470

 Al 
  0.5076184  0.7509381  0.2356505

 Al 
  0.7561655  0.4907851  0.2573400

 Al 
  0.7620402  0.7429805  0.9865984

 Al 
  0.5054057  0.0076704  0.4697416

 Al 
  0.5020457  0.2351332  0.7468665

 Al 
  0.7411848  0.9911514  0.7390030

 Al 
  0.7588919  0.2482946  0.5005346

 Al 
  0.4908148  0.5218764  0.5227922

 Al 
  0.4890228  0.7513539  0.7500569

 Al 
  0.7493033  0.4983132  0.7555765

 Al 
  0.7626813  0.7350453  0.4973912

