32 
charge = 0 
 Al 
  0.9910165  0.0141194  0.9903879

 Al 
  0.0179174  0.2618088  0.2703356

 Al 
  0.2465769  0.9926415  0.2355799

 Al 
  0.2512561  0.2411638  0.9964977

 Al 
  0.5037176  0.0058636  0.9826160

 Al 
  0.4988652  0.2446909  0.2338684

 Al 
  0.7440572  0.9947589  0.2373125

 Al 
  0.7375179  0.2380179  0.9957502

 Al 
  0.9986931  0.5031508  0.9932491

 Al 
  0.9882630  0.7593696  0.2615106

 Al 
  0.2391416  0.5085392  0.2658321

 Al 
  0.2471586  0.7495334  0.9966586

 Al 
  0.9971016  0.9976251  0.5005680

 Al 
  0.9938468  0.2393396  0.7637753

 Al 
  0.2493577  0.9954643  0.7605119

 Al 
  0.2426811  0.2418308  0.5193369

 Al 
  0.0123645  0.5014677  0.5224853

 Al 
  0.0065418  0.7552621  0.7626924

 Al 
  0.2450918  0.5012512  0.7464111

 Al 
  0.2541322  0.7661601  0.5113781

 Al 
  0.4944359  0.5052188  0.9815455

 Al 
  0.5142394  0.7545926  0.2349859

 Al 
  0.7645834  0.4934323  0.2575231

 Al 
  0.7588993  0.7437850  0.9901577

 Al 
  0.5086035  0.0044627  0.4772338

 Al 
  0.5035939  0.2387803  0.7425189

 Al 
  0.7418247  0.9902752  0.7432924

 Al 
  0.7539850  0.2508700  0.5035134

 Al 
  0.4909175  0.5286756  0.5186773

 Al 
  0.4902542  0.7521175  0.7489048

 Al 
  0.7484320  0.4970707  0.7579749

 Al 
  0.7649324  0.7286595  0.4969160

