32 
charge = 0 
 Al 
  0.9920227  0.0148124  0.9925548

 Al 
  0.0155227  0.2603584  0.2728801

 Al 
  0.2477018  0.9892901  0.2340404

 Al 
  0.2554775  0.2414534  0.9967180

 Al 
  0.5050517  0.0070058  0.9811173

 Al 
  0.4991498  0.2466598  0.2332694

 Al 
  0.7430511  0.9955039  0.2363410

 Al 
  0.7377444  0.2393384  0.9978009

 Al 
  0.9995743  0.5010767  0.9933914

 Al 
  0.9887666  0.7621034  0.2611517

 Al 
  0.2401601  0.5082558  0.2681897

 Al 
  0.2488986  0.7522845  0.9980768

 Al 
  0.9961710  0.9981226  0.4991968

 Al 
  0.9890525  0.2416972  0.7641911

 Al 
  0.2497030  0.9947404  0.7586060

 Al 
  0.2447441  0.2396255  0.5198517

 Al 
  0.0149052  0.5038661  0.5248218

 Al 
  0.0052596  0.7541260  0.7627828

 Al 
  0.2477439  0.4993540  0.7485137

 Al 
  0.2518316  0.7679026  0.5089773

 Al 
  0.4938592  0.5040617  0.9805616

 Al 
  0.5113051  0.7531446  0.2352223

 Al 
  0.7607953  0.4921551  0.2576197

 Al 
  0.7605898  0.7432689  0.9883224

 Al 
  0.5072311  0.0061136  0.4733293

 Al 
  0.5028872  0.2367457  0.7447342

 Al 
  0.7413024  0.9907307  0.7413581

 Al 
  0.7564130  0.2496535  0.5021113

 Al 
  0.4906453  0.5260210  0.5211289

 Al 
  0.4894077  0.7514937  0.7493218

 Al 
  0.7488392  0.4976969  0.7569811

 Al 
  0.7641911  0.7313400  0.4968356

