32 
charge = 0 
 Al 
  0.9914138  0.0144795  0.9912084

 Al 
  0.0169868  0.2612853  0.2714420

 Al 
  0.2470410  0.9912442  0.2349079

 Al 
  0.2530147  0.2412232  0.9965930

 Al 
  0.5042943  0.0064143  0.9819662

 Al 
  0.4989988  0.2454371  0.2335676

 Al 
  0.7435771  0.9950250  0.2368942

 Al 
  0.7375489  0.2384882  0.9965979

 Al 
  0.9990372  0.5023303  0.9932590

 Al 
  0.9884016  0.7605218  0.2614363

 Al 
  0.2394881  0.5083956  0.2668383

 Al 
  0.2478726  0.7506794  0.9972093

 Al 
  0.9967229  0.9978108  0.4999864

 Al 
  0.9918754  0.2402604  0.7639993

 Al 
  0.2495211  0.9951389  0.7597681

 Al 
  0.2434867  0.2409311  0.5195782

 Al 
  0.0134659  0.5024467  0.5234766

 Al 
  0.0060405  0.7547993  0.7627803

 Al 
  0.2461636  0.5004925  0.7471920

 Al 
  0.2532214  0.7668791  0.5104487

 Al 
  0.4941896  0.5047708  0.9810789

 Al 
  0.5130860  0.7540567  0.2350676

 Al 
  0.7630748  0.4929125  0.2576048

 Al 
  0.7596295  0.7435498  0.9893817

 Al 
  0.5080689  0.0051631  0.4755643

 Al 
  0.5033154  0.2378892  0.7434508

 Al 
  0.7415685  0.9904695  0.7425214

 Al 
  0.7549923  0.2503750  0.5029442

 Al 
  0.4907628  0.5277028  0.5197824

 Al 
  0.4898520  0.7518093  0.7490446

 Al 
  0.7485941  0.4973331  0.7575962

 Al 
  0.7646923  0.7296842  0.4968145

