32 
charge = 0 
 Al 
  0.9922293  0.0148730  0.9930300

 Al 
  0.0150203  0.2600168  0.2733021

 Al 
  0.2479159  0.9886800  0.2337867

 Al 
  0.2562497  0.2415648  0.9967539

 Al 
  0.5052770  0.0071395  0.9808685

 Al 
  0.4991869  0.2470942  0.2332100

 Al 
  0.7429236  0.9956821  0.2361752

 Al 
  0.7378496  0.2396602  0.9981833

 Al 
  0.9997612  0.5006534  0.9934681

 Al 
  0.9889238  0.7625897  0.2610106

 Al 
  0.2404200  0.5082261  0.2685993

 Al 
  0.2492290  0.7527870  0.9983726

 Al 
  0.9959903  0.9982352  0.4989567

 Al 
  0.9881491  0.2421885  0.7642208

 Al 
  0.2497463  0.9946315  0.7582088

 Al 
  0.2451735  0.2392023  0.5199198

 Al 
  0.0153297  0.5043253  0.5252339

 Al 
  0.0049936  0.7539082  0.7627518

 Al 
  0.2482625  0.4989728  0.7489939

 Al 
  0.2513663  0.7682281  0.5084686

 Al 
  0.4937602  0.5038179  0.9804366

 Al 
  0.5107012  0.7528117  0.2352829

 Al 
  0.7600317  0.4919113  0.2575999

 Al 
  0.7608757  0.7431959  0.9879981

 Al 
  0.5069403  0.0064031  0.4726523

 Al 
  0.5027449  0.2364153  0.7451302

 Al 
  0.7412442  0.9908099  0.7409683

 Al 
  0.7568610  0.2494183  0.5018403

 Al 
  0.4906366  0.5254022  0.5214989

 Al 
  0.4892988  0.7514257  0.7494307

 Al 
  0.7489208  0.4978095  0.7567633

 Al 
  0.7639869  0.7319217  0.4968838

