32 
charge = 0 
 Al 
  0.9926514  0.0149250  0.9940127

 Al 
  0.0139993  0.2592854  0.2740669

 Al 
  0.2483342  0.9875217  0.2333337

 Al 
  0.2577249  0.2418346  0.9968170

 Al 
  0.5056891  0.0073128  0.9804230

 Al 
  0.4992389  0.2480038  0.2331506

 Al 
  0.7427318  0.9960621  0.2358646

 Al 
  0.7381194  0.2403606  0.9989208

 Al 
  0.0001485  0.4997958  0.9936711

 Al 
  0.9892877  0.7634993  0.2606616

 Al 
  0.2409930  0.5081865  0.2693617

 Al 
  0.2498701  0.7537461  0.9989703

 Al 
  0.9956351  0.9984753  0.4985137

 Al 
  0.9863980  0.2431847  0.7642283

 Al 
  0.2498032  0.9944483  0.7573994

 Al 
  0.2460472  0.2383768  0.5200213

 Al 
  0.0161007  0.5052250  0.5260049

 Al 
  0.0044589  0.7534875  0.7626467

 Al 
  0.2492884  0.4982080  0.7500136

 Al 
  0.2504356  0.7688543  0.5074241

 Al 
  0.4935808  0.5033167  0.9802535

 Al 
  0.5094797  0.7521063  0.2354153

 Al 
  0.7584971  0.4914398  0.2575256

 Al 
  0.7613930  0.7430783  0.9873942

 Al 
  0.5063450  0.0069464  0.4713975

 Al 
  0.5024603  0.2358287  0.7458740

 Al 
  0.7411737  0.9909559  0.7401874

 Al 
  0.7577150  0.2489592  0.5013081

 Al 
  0.4906638  0.5240793  0.5221239

 Al 
  0.4891379  0.7513452  0.7496659

 Al 
  0.7490780  0.4980224  0.7563103

 Al 
  0.7635228  0.7331271  0.4970385

