32 
charge = 0 
 Al 
  0.9898681  0.0122964  0.9884263

 Al 
  0.0203703  0.2628298  0.2663148

 Al 
  0.2450547  0.9971573  0.2380625

 Al 
  0.2455510  0.2414942  0.9961796

 Al 
  0.5016262  0.0035233  0.9849413

 Al 
  0.4983342  0.2428283  0.2352557

 Al 
  0.7461623  0.9942973  0.2388496

 Al 
  0.7378917  0.2371071  0.9930338

 Al 
  0.9977142  0.5054898  0.9935672

 Al 
  0.9884634  0.7555270  0.2611603

 Al 
  0.2386639  0.5092805  0.2623113

 Al 
  0.2449359  0.7458109  0.9952366

 Al 
  0.9982600  0.9971858  0.5025172

 Al 
  0.0000557  0.2368608  0.7625835

 Al 
  0.2487377  0.9966982  0.7625303

 Al 
  0.2405178  0.2446166  0.5182887

 Al 
  0.0083870  0.4983974  0.5190832

 Al 
  0.0078598  0.7566692  0.7619549

 Al 
  0.2418630  0.5035184  0.7445869

 Al 
  0.2566804  0.7638805  0.5138260

 Al 
  0.4952552  0.5063982  0.9835429

 Al 
  0.5174224  0.7558178  0.2348869

 Al 
  0.7689644  0.4949681  0.2568796

 Al 
  0.7563252  0.7447045  0.9927590

 Al 
  0.5100663  0.0020395  0.4830640

 Al 
  0.5043302  0.2420289  0.7394622

 Al 
  0.7429459  0.9896070  0.7455534

 Al 
  0.7507487  0.2523885  0.5052299

 Al 
  0.4917467  0.5307831  0.5143372

 Al 
  0.4920029  0.7535023  0.7487649

 Al 
  0.7480001  0.4962131  0.7589513

 Al 
  0.7651936  0.7260779  0.4978590

