32 
charge = 0 
 Al 
  0.9893396  0.0109537  0.9878199

 Al 
  0.0213170  0.2629833  0.2639609

 Al 
  0.2442317  0.9994790  0.2395401

 Al 
  0.2426031  0.2419732  0.9960262

 Al 
  0.5004034  0.0020482  0.9862742

 Al 
  0.4980137  0.2421427  0.2362024

 Al 
  0.7475818  0.9942973  0.2397864

 Al 
  0.7383174  0.2369425  0.9916366

 Al 
  0.9972538  0.5065393  0.9939001

 Al 
  0.9889622  0.7534924  0.2606765

 Al 
  0.2387840  0.5098374  0.2603213

 Al 
  0.2438382  0.7438852  0.9947156

 Al 
  0.9988317  0.9970323  0.5035431

 Al 
  0.0031694  0.2358621  0.7616801

 Al 
  0.2484011  0.9974234  0.7633657

 Al 
  0.2396527  0.2460101  0.5175709

 Al 
  0.0060938  0.4968331  0.5171935

 Al 
  0.0083535  0.7573363  0.7613064

 Al 
  0.2403136  0.5046112  0.7439929

 Al 
  0.2577583  0.7627320  0.5147827

 Al 
  0.4956797  0.5068598  0.9848559

 Al 
  0.5187726  0.7561940  0.2349525

 Al 
  0.7709668  0.4956623  0.2563153

 Al 
  0.7548748  0.7452552  0.9941500

 Al 
  0.5107000  0.0006769  0.4863423

 Al 
  0.5045926  0.2439161  0.7378880

 Al 
  0.7436798  0.9892481  0.7466153

 Al 
  0.7490953  0.2531335  0.5060381

 Al 
  0.4923494  0.5313215  0.5116430

 Al 
  0.4931674  0.7544057  0.7488726

 Al 
  0.7478380  0.4957725  0.7593300

 Al 
  0.7650599  0.7251448  0.4986993

