32 
charge = 0 
 Al 
  0.9902418  0.0130328  0.9889820

 Al 
  0.0196240  0.2625897  0.2677677

 Al 
  0.2455831  0.9956141  0.2371591

 Al 
  0.2475051  0.2412937  0.9962873

 Al 
  0.5023811  0.0044082  0.9841085

 Al 
  0.4985298  0.2433815  0.2347136

 Al 
  0.7453480  0.9943877  0.2382877

 Al 
  0.7376924  0.2373261  0.9939619

 Al 
  0.9980323  0.5047374  0.9934050

 Al 
  0.9882840  0.7568573  0.2613720

 Al 
  0.2387209  0.5089785  0.2635624

 Al 
  0.2456821  0.7470868  0.9956623

 Al 
  0.9978726  0.9973120  0.5018427

 Al 
  0.9979580  0.2376269  0.7630711

 Al 
  0.2489592  0.9962489  0.7619004

 Al 
  0.2411848  0.2436810  0.5186946

 Al 
  0.0098176  0.4994381  0.5202836

 Al 
  0.0074613  0.7562039  0.7622828

 Al 
  0.2429310  0.5027684  0.7451042

 Al 
  0.2558759  0.7646527  0.5130786

 Al 
  0.4949730  0.5060381  0.9827793

 Al 
  0.5164200  0.7554775  0.2348906

 Al 
  0.7675424  0.4944693  0.2571655

 Al 
  0.7572422  0.7443666  0.9918544

 Al 
  0.5096047  0.0028971  0.4809948

 Al 
  0.5041087  0.2408569  0.7405116

 Al 
  0.7425165  0.9898408  0.7448134

 Al 
  0.7518514  0.2518811  0.5046631

 Al 
  0.4914113  0.5302250  0.5159509

 Al 
  0.4913296  0.7529689  0.7487600

 Al 
  0.7481313  0.4965076  0.7586543

 Al 
  0.7651849  0.7268440  0.4974345

