32 
charge = 0 
 Al 
  0.9891738  0.0104463  0.9876838

 Al 
  0.0215781  0.2629771  0.2631392

 Al 
  0.2439533  0.0002401  0.2400599

 Al 
  0.2416328  0.2421798  0.9959804

 Al 
  0.4999765  0.0015284  0.9867358

 Al 
  0.4979036  0.2419546  0.2365489

 Al 
  0.7481028  0.9943344  0.2401218

 Al 
  0.7384894  0.2369301  0.9911774

 Al 
  0.9971053  0.5068623  0.9940325

 Al 
  0.9891911  0.7528167  0.2604747

 Al 
  0.2388793  0.5100490  0.2596381

 Al 
  0.2434842  0.7432516  0.9945782

 Al 
  0.9990174  0.9969902  0.5038810

 Al 
  0.0041805  0.2355762  0.7613348

 Al 
  0.2482934  0.9976721  0.7636095

 Al 
  0.2394065  0.2464655  0.5173024

 Al 
  0.0053017  0.4963145  0.5165474

 Al 
  0.0084872  0.7575454  0.7610502

 Al 
  0.2398186  0.5049614  0.7438444

 Al 
  0.2580763  0.7623583  0.5150512

 Al 
  0.4958195  0.5069898  0.9853336

 Al 
  0.5191736  0.7562806  0.2349970

 Al 
  0.7715868  0.4958740  0.2560925

 Al 
  0.7543773  0.7454470  0.9946154

 Al 
  0.5108943  0.0002079  0.4874647

 Al 
  0.5046582  0.2445708  0.7373744

 Al 
  0.7439434  0.9891280  0.7469519

 Al 
  0.7485545  0.2533748  0.5062918

 Al 
  0.4925734  0.5314180  0.5106826

 Al 
  0.4935931  0.7547275  0.7489357

 Al 
  0.7477959  0.4956289  0.7594389

 Al 
  0.7649782  0.7248985  0.4990310

