32 
charge = 0 
 Al 
  0.9896874  0.0118794  0.9881924

 Al 
  0.0207106  0.2629090  0.2655512

 Al 
  0.2447837  0.9979345  0.2385389

 Al 
  0.2445671  0.2416304  0.9961264

 Al 
  0.5012289  0.0030494  0.9853757

 Al 
  0.4982303  0.2425796  0.2355539

 Al 
  0.7466103  0.9942787  0.2391503

 Al 
  0.7380179  0.2370303  0.9925672

 Al 
  0.9975583  0.5058524  0.9936674

 Al 
  0.9885983  0.7548500  0.2610205

 Al 
  0.2386751  0.5094525  0.2616603

 Al 
  0.2445659  0.7451686  0.9950460

 Al 
  0.9984530  0.9971289  0.5028588

 Al 
  0.0011027  0.2365056  0.7623051

 Al 
  0.2486251  0.9969346  0.7628236

 Al 
  0.2402096  0.2450844  0.5180635

 Al 
  0.0076395  0.4978751  0.5184632

 Al 
  0.0080392  0.7568969  0.7617593

 Al 
  0.2413371  0.5038884  0.7443641

 Al 
  0.2570591  0.7634956  0.5141689

 Al 
  0.4953963  0.5065640  0.9839600

 Al 
  0.5178952  0.7559613  0.2348993

 Al 
  0.7696525  0.4952082  0.2567101

 Al 
  0.7558500  0.7448839  0.9932206

 Al 
  0.5102854  0.0015940  0.4841369

 Al 
  0.5044280  0.2426427  0.7389350

 Al 
  0.7431798  0.9894881  0.7459148

 Al 
  0.7501955  0.2526397  0.5055059

 Al 
  0.4919348  0.5310034  0.5134733

 Al 
  0.4923717  0.7537907  0.7487872

 Al 
  0.7479407  0.4960658  0.7590862

 Al 
  0.7651688  0.7257363  0.4981127

