32 
charge = 0 
 Al 
  0.9906242  0.0136392  0.9896404

 Al 
  0.0188010  0.2622457  0.2691104

 Al 
  0.2460905  0.9941030  0.2363311

 Al 
  0.2494146  0.2411848  0.9963950

 Al 
  0.5030791  0.0051916  0.9833325

 Al 
  0.4987080  0.2440040  0.2342508

 Al 
  0.7446451  0.9945436  0.2377754

 Al 
  0.7375662  0.2376306  0.9948703

 Al 
  0.9983590  0.5039552  0.9932986

 Al 
  0.9882196  0.7581444  0.2614895

 Al 
  0.2388830  0.5087322  0.2647381

 Al 
  0.2464272  0.7483330  0.9961400

 Al 
  0.9974853  0.9974593  0.5011893

 Al 
  0.9958802  0.2384585  0.7634684

 Al 
  0.2491696  0.9958356  0.7612247

 Al 
  0.2419101  0.2427491  0.5190424

 Al 
  0.0111467  0.5004628  0.5214197

 Al 
  0.0070182  0.7557324  0.7625278

 Al 
  0.2440114  0.5020110  0.7457131

 Al 
  0.2550220  0.7654151  0.5122581

 Al 
  0.4946983  0.5056433  0.9821123

 Al 
  0.5153544  0.7550678  0.2349253

 Al 
  0.7660759  0.4939545  0.2573783

 Al 
  0.7581023  0.7440585  0.9909844

 Al 
  0.5091159  0.0037065  0.4790468

 Al 
  0.5038612  0.2397703  0.7415351

 Al 
  0.7421402  0.9900648  0.7440572

 Al 
  0.7529343  0.2513737  0.5040889

 Al 
  0.4911341  0.5295196  0.5174001

 Al 
  0.4907467  0.7525048  0.7488082

 Al 
  0.7482761  0.4967947  0.7583288

 Al 
  0.7650983  0.7277103  0.4971202

