32 
charge = 0 
 Al 
  0.9890154  0.0099129  0.9875823

 Al 
  0.0218108  0.2629437  0.2623038

 Al 
  0.2436723  0.0009900  0.2405920

 Al 
  0.2406750  0.2424088  0.9959371

 Al 
  0.4995433  0.0009987  0.9872048

 Al 
  0.4977910  0.2417888  0.2369091

 Al 
  0.7486449  0.9943914  0.2404683

 Al 
  0.7386738  0.2369388  0.9907232

 Al 
  0.9969605  0.5071692  0.9941736

 Al 
  0.9894498  0.7521484  0.2602557

 Al 
  0.2390043  0.5102718  0.2589476

 Al 
  0.2431402  0.7426266  0.9944607

 Al 
  0.9992005  0.9969544  0.5042151

 Al 
  0.0051693  0.2353176  0.7609698

 Al 
  0.2481894  0.9979246  0.7638359

 Al 
  0.2391849  0.2469160  0.5170190

 Al 
  0.0045023  0.4958010  0.5158977

 Al 
  0.0086035  0.7577459  0.7607755

 Al 
  0.2393384  0.5053030  0.7437194

 Al 
  0.2583696  0.7619907  0.5152926

 Al 
  0.4959569  0.5071061  0.9858274

 Al 
  0.5195485  0.7563499  0.2350527

 Al 
  0.7721784  0.4960732  0.2558524

 Al 
  0.7538773  0.7456413  0.9950770

 Al 
  0.5110774  0.9997339  0.4885971

 Al 
  0.5047114  0.2452354  0.7368707

 Al 
  0.7442144  0.9890104  0.7472774

 Al 
  0.7480211  0.2536100  0.5065331

 Al 
  0.4928085  0.5314725  0.5096975

 Al 
  0.4940337  0.7550554  0.7490124

 Al 
  0.7477588  0.4954866  0.7595367

 Al 
  0.7648780  0.7246857  0.4993837

