32 
charge = 0 
 Al 
  0.9880068  0.0042226  0.9882865

 Al 
  0.0224494  0.2614970  0.2546223

 Al 
  0.2412492  0.0067596  0.2455770

 Al 
  0.2332657  0.2453690  0.9957700

 Al 
  0.4955794  0.9963022  0.9915264

 Al 
  0.4968195  0.2412653  0.2405227

 Al 
  0.7541248  0.9957057  0.2439669

 Al 
  0.7407084  0.2378174  0.9871739

 Al 
  0.9958220  0.5090763  0.9956438

 Al 
  0.9930028  0.7468962  0.2577311

 Al 
  0.2412430  0.5125971  0.2528427

 Al 
  0.2406106  0.7378224  0.9943146

 Al 
  0.0006039  0.9967984  0.5067658

 Al 
  0.0125043  0.2342669  0.7569700

 Al 
  0.2475744  0.0000644  0.7649522

 Al 
  0.2383323  0.2505297  0.5139164

 Al 
  0.9975088  0.4915771  0.5102099

 Al 
  0.0088411  0.7590342  0.7575776

 Al 
  0.2358707  0.5077830  0.7435746

 Al 
  0.2597594  0.7591802  0.5161502

 Al 
  0.4970175  0.5075009  0.9907158

 Al 
  0.5215880  0.7561977  0.2361876

 Al 
  0.7758403  0.4971932  0.2531063

 Al 
  0.7495545  0.7473467  0.9988404

 Al 
  0.5122816  0.9954854  0.4984976

 Al 
  0.5045221  0.2512499  0.7331803

 Al 
  0.7467774  0.9881602  0.7496151

 Al 
  0.7439149  0.2553834  0.5080404

 Al 
  0.4951995  0.5301643  0.5002983

 Al 
  0.4984246  0.7578857  0.7501782

 Al 
  0.7476919  0.4944644  0.7599587

 Al 
  0.7633125  0.7244023  0.5032833

