32 
charge = 0 
 Al 
  0.9883508  0.0069068  0.9876219

 Al 
  0.0224964  0.2623707  0.2580231

 Al 
  0.2422900  0.0044565  0.2433456

 Al 
  0.2362334  0.2438716  0.9957898

 Al 
  0.4973281  0.9983206  0.9896020

 Al 
  0.4972316  0.2412851  0.2388595

 Al 
  0.7515940  0.9949557  0.2423383

 Al 
  0.7397431  0.2372680  0.9886058

 Al 
  0.9962898  0.5084315  0.9949668

 Al 
  0.9911749  0.7490149  0.2589439

 Al 
  0.2400178  0.5115192  0.2554923

 Al 
  0.2415908  0.7397357  0.9941797

 Al 
  0.0000396  0.9968343  0.5057534

 Al 
  0.0096530  0.2344438  0.7588783

 Al 
  0.2477612  0.9991609  0.7646651

 Al 
  0.2384498  0.2490310  0.5154114

 Al 
  0.0005111  0.4933481  0.5126652

 Al 
  0.0089129  0.7585899  0.7591394

 Al 
  0.2372024  0.5068289  0.7434409

 Al 
  0.2594315  0.7603039  0.5160611

 Al 
  0.4965930  0.5074749  0.9884795

 Al 
  0.5209841  0.7564242  0.2355354

 Al 
  0.7746139  0.4968566  0.2544391

 Al 
  0.7514009  0.7466128  0.9972823

 Al 
  0.5118472  0.9973430  0.4942268

 Al 
  0.5047646  0.2486040  0.7345961

 Al 
  0.7456302  0.9884783  0.7487179

 Al 
  0.7455572  0.2546842  0.5075368

 Al 
  0.4940944  0.5311296  0.5045270

 Al 
  0.4964135  0.7567014  0.7495693

 Al 
  0.7476647  0.4948517  0.7598720

 Al 
  0.7641342  0.7241646  0.5014319

