32 
charge = 0 
 Al 
  0.9888644  0.0093535  0.9875179

 Al 
  0.0220125  0.2628818  0.2614574

 Al 
  0.2433927  0.0017252  0.2411316

 Al 
  0.2397357  0.2426600  0.9958987

 Al 
  0.4991052  0.0004628  0.9876788

 Al 
  0.4976771  0.2416440  0.2372816

 Al 
  0.7492055  0.9944681  0.2408247

 Al 
  0.7388694  0.2369685  0.9902765

 Al 
  0.9968195  0.5074600  0.9943208

 Al 
  0.9897394  0.7514900  0.2600193

 Al 
  0.2391552  0.5105044  0.2582545

 Al 
  0.2428048  0.7420140  0.9943629

 Al 
  0.9993775  0.9969222  0.5045419

 Al 
  0.0061334  0.2350849  0.7605849

 Al 
  0.2480892  0.9981758  0.7640426

 Al 
  0.2389857  0.2473578  0.5167232

 Al 
  0.0036991  0.4952948  0.5152455

 Al 
  0.0087013  0.7579365  0.7604809

 Al 
  0.2388743  0.5056334  0.7436179

 Al 
  0.2586369  0.7616318  0.5155054

 Al 
  0.4960918  0.5072088  0.9863348

 Al 
  0.5198951  0.7564007  0.2351220

 Al 
  0.7727377  0.4962588  0.2555975

 Al 
  0.7533761  0.7458368  0.9955336

 Al 
  0.5112519  0.9992562  0.4897319

 Al 
  0.5047510  0.2459049  0.7363806

 Al 
  0.7444904  0.9888966  0.7475917

 Al 
  0.7474989  0.2538402  0.5067633

 Al 
  0.4930523  0.5314861  0.5086914

 Al 
  0.4944891  0.7553883  0.7491015

 Al 
  0.7477278  0.4953492  0.7596245

 Al 
  0.7647592  0.7245087  0.4997587

