32 
charge = 0 
 Al 
  0.9880761  0.0049094  0.9880711

 Al 
  0.0225113  0.2617445  0.2554638

 Al 
  0.2415017  0.0062287  0.2450213

 Al 
  0.2339501  0.2449705  0.9957663

 Al 
  0.4960101  0.9967885  0.9910475

 Al 
  0.4969185  0.2412405  0.2401032

 Al 
  0.7534850  0.9954965  0.2435498

 Al 
  0.7404621  0.2376603  0.9875068

 Al 
  0.9959334  0.5089463  0.9954755

 Al 
  0.9925140  0.7473875  0.2580429

 Al 
  0.2409076  0.5123261  0.2534899

 Al 
  0.2408321  0.7382617  0.9942528

 Al 
  0.0004715  0.9968034  0.5065331

 Al 
  0.0118608  0.2342693  0.7574613

 Al 
  0.2476066  0.9998490  0.7649114

 Al 
  0.2383236  0.2501720  0.5143062

 Al 
  0.9982340  0.4920029  0.5108076

 Al 
  0.0088845  0.7589439  0.7579860

 Al 
  0.2361702  0.5075689  0.7435164

 Al 
  0.2597211  0.7594401  0.5161700

 Al 
  0.4969185  0.5075170  0.9901540

 Al 
  0.5214816  0.7562744  0.2360007

 Al 
  0.7755977  0.4971338  0.2534528

 Al 
  0.7499988  0.7471697  0.9984716

 Al 
  0.5121875  0.9959408  0.4974593

 Al 
  0.5046074  0.2505977  0.7334959

 Al 
  0.7464927  0.9882271  0.7494122

 Al 
  0.7442948  0.2552238  0.5079414

 Al 
  0.4949198  0.5304589  0.5013527

 Al 
  0.4979184  0.7576085  0.7500149

 Al 
  0.7476771  0.4945485  0.7599512

 Al 
  0.7635327  0.7242896  0.5028105

