32 
charge = 0 
 Al 
  0.9881553  0.0055864  0.9878880

 Al 
  0.0225397  0.2619734  0.2563116

 Al 
  0.2417603  0.0056680  0.2444644

 Al 
  0.2346740  0.2445881  0.9957688

 Al 
  0.4964470  0.9972873  0.9905673

 Al 
  0.4970199  0.2412343  0.2396849

 Al 
  0.7528489  0.9953010  0.2431390

 Al 
  0.7402183  0.2375155  0.9878570

 Al 
  0.9960485  0.5087954  0.9953047

 Al 
  0.9920449  0.7479048  0.2583486

 Al 
  0.2405908  0.5120563  0.2541483

 Al 
  0.2410697  0.7387270  0.9942094

 Al 
  0.0003341  0.9968120  0.5062868

 Al 
  0.0111702  0.2342990  0.7579452

 Al 
  0.2476486  0.9996263  0.7648507

 Al 
  0.2383397  0.2498032  0.5146862

 Al 
  0.9989765  0.4924397  0.5114165

 Al 
  0.0089104  0.7588387  0.7583832

 Al 
  0.2364920  0.5073375  0.7434731

 Al 
  0.2596542  0.7597149  0.5161626

 Al 
  0.4968158  0.5075182  0.9895921

 Al 
  0.5213467  0.7563388  0.2358299

 Al 
  0.7753119  0.4970583  0.2537907

 Al 
  0.7504554  0.7469878  0.9980880

 Al 
  0.5120836  0.9964024  0.4963999

 Al 
  0.5046767  0.2499381  0.7338374

 Al 
  0.7462056  0.9883038  0.7491956

 Al 
  0.7446946  0.2550530  0.5078251

 Al 
  0.4946426  0.5307188  0.5024095

 Al 
  0.4974147  0.7573177  0.7498589

 Al 
  0.7476672  0.4946426  0.7599352

 Al 
  0.7637431  0.7242129  0.5023427

