32 
charge = 0 
 Al 
  0.9881107  0.9962972  0.9925239

 Al 
  0.0196092  0.2578857  0.2459358

 Al 
  0.2388855  0.0106071  0.2514888

 Al 
  0.2283006  0.2506002  0.9961128

 Al 
  0.4911490  0.9920586  0.9967638

 Al 
  0.4959792  0.2427281  0.2452453

 Al 
  0.7612791  0.9987340  0.2489976

 Al 
  0.7436055  0.2401713  0.9846208

 Al 
  0.9947465  0.5092087  0.9972935

 Al 
  0.9994988  0.7432553  0.2542275

 Al 
  0.2459272  0.5152690  0.2465014

 Al 
  0.2390946  0.7348460  0.9959742

 Al 
  0.0016719  0.9968108  0.5083993

 Al 
  0.0164522  0.2358881  0.7511559

 Al 
  0.2478986  0.0019145  0.7641775

 Al 
  0.2399881  0.2538785  0.5088857

 Al 
  0.9909113  0.4876825  0.5043896

 Al 
  0.0074155  0.7590788  0.7524343

 Al 
  0.2339649  0.5090800  0.7449817

 Al 
  0.2584129  0.7570863  0.5143446

 Al 
  0.4977711  0.5063264  0.9968665

 Al 
  0.5210386  0.7548079  0.2393495

 Al 
  0.7757512  0.4968368  0.2488330

 Al 
  0.7455794  0.7489926  0.0020333

 Al 
  0.5127704  0.9909509  0.5084884

 Al 
  0.5023922  0.2580182  0.7314997

 Al 
  0.7498626  0.9880823  0.7510581

 Al 
  0.7411267  0.2564873  0.5079464

 Al 
  0.4982860  0.5248329  0.4891651

 Al 
  0.5038290  0.7596938  0.7522660

 Al 
  0.7481857  0.4940981  0.7594686

 Al 
  0.7605044  0.7277919  0.5085714

