32 
charge = 0 
 Al 
  0.9879659  0.9977749  0.9915264

 Al 
  0.0204198  0.2586369  0.2474382

 Al 
  0.2392555  0.0101703  0.2504381

 Al 
  0.2288600  0.2495446  0.9960212

 Al 
  0.4919138  0.9926712  0.9958010

 Al 
  0.4960955  0.2423160  0.2443716

 Al 
  0.7599748  0.9981003  0.2480125

 Al 
  0.7430523  0.2396738  0.9849376

 Al 
  0.9949322  0.5093498  0.9970360

 Al 
  0.9981845  0.7436860  0.2548624

 Al 
  0.2449631  0.5148545  0.2475496

 Al 
  0.2392567  0.7351282  0.9955633

 Al 
  0.0015234  0.9968034  0.5082224

 Al 
  0.0161551  0.2353893  0.7522548

 Al 
  0.2477513  0.0016497  0.7644708

 Al 
  0.2394894  0.2533290  0.5099129

 Al 
  0.9919162  0.4882914  0.5053549

 Al 
  0.0077917  0.7592025  0.7534516

 Al 
  0.2341344  0.5089835  0.7446488

 Al 
  0.2588807  0.7573783  0.5148693

 Al 
  0.4976721  0.5066766  0.9957589

 Al 
  0.5213504  0.7551062  0.2386169

 Al 
  0.7761348  0.4970274  0.2496683

 Al 
  0.7461710  0.7487364  0.0015593

 Al 
  0.5127481  0.9917083  0.5068598

 Al 
  0.5029466  0.2568301  0.7315640

 Al 
  0.7492995  0.9879919  0.7508849

 Al 
  0.7414534  0.2563759  0.5081196

 Al 
  0.4977229  0.5260742  0.4911180

 Al 
  0.5028823  0.7595602  0.7518551

 Al 
  0.7480521  0.4940832  0.7596319

 Al 
  0.7610539  0.7268972  0.5076209

