32 
charge = 0 
 Al 
  0.9878744  0.0021187  0.9891194

 Al 
  0.0220670  0.2606579  0.2521484

 Al 
  0.2405277  0.0081679  0.2472241

 Al 
  0.2314452  0.2466474  0.9958133

 Al 
  0.4943134  0.9949371  0.9929558

 Al 
  0.4965447  0.2414583  0.2417925

 Al 
  0.7560641  0.9964098  0.2452527

 Al 
  0.7414658  0.2383545  0.9862779

 Al 
  0.9955076  0.5093424  0.9961413

 Al 
  0.9945832  0.7455856  0.2567818

 Al 
  0.2423543  0.5133991  0.2509715

 Al 
  0.2400351  0.7366690  0.9946030

 Al 
  0.0009603  0.9967910  0.5073759

 Al 
  0.0141491  0.2344216  0.7554490

 Al 
  0.2475410  0.0006646  0.7649547

 Al 
  0.2385105  0.2515395  0.5126838

 Al 
  0.9954507  0.4903780  0.5084884

 Al 
  0.0086171  0.7592198  0.7562881

 Al 
  0.2351047  0.5083263  0.7438357

 Al 
  0.2597037  0.7584761  0.5159349

 Al 
  0.4972786  0.5073623  0.9924063

 Al 
  0.5217378  0.7559019  0.2368447

 Al 
  0.7763143  0.4972736  0.2520209

 Al 
  0.7482971  0.7478528  0.9998651

 Al 
  0.5125093  0.9941587  0.5014826

 Al 
  0.5041594  0.2531657  0.7323969

 Al 
  0.7476251  0.9880093  0.7501423

 Al 
  0.7429063  0.2558042  0.5082286

 Al 
  0.4960398  0.5290802  0.4971697

 Al 
  0.4999356  0.7586184  0.7506992

 Al 
  0.7477674  0.4942589  0.7599253

 Al 
  0.7626083  0.7249455  0.5047263

