32 
charge = 0 
 Al 
  0.9880303  0.9970373  0.9920140

 Al 
  0.0200312  0.2582657  0.2466833

 Al 
  0.2390661  0.0104030  0.2509641

 Al 
  0.2285617  0.2500668  0.9960658

 Al 
  0.4915289  0.9923556  0.9962811

 Al 
  0.4960348  0.2425152  0.2448072

 Al 
  0.7606269  0.9984134  0.2485001

 Al 
  0.7433271  0.2399201  0.9847718

 Al 
  0.9948394  0.5092879  0.9971672

 Al 
  0.9988355  0.7434595  0.2545443

 Al 
  0.2454396  0.5150673  0.2470199

 Al 
  0.2391701  0.7349723  0.9957638

 Al 
  0.0015989  0.9968071  0.5083164

 Al 
  0.0163259  0.2356282  0.7517066

 Al 
  0.2478207  0.0017858  0.7643322

 Al 
  0.2397282  0.2536063  0.5094067

 Al 
  0.9914027  0.4879820  0.5048673

 Al 
  0.0076098  0.7591481  0.7529479

 Al 
  0.2340404  0.5090392  0.7448121

 Al 
  0.2586580  0.7572286  0.5146169

 Al 
  0.4977229  0.5065096  0.9963133

 Al 
  0.5212044  0.7549577  0.2389746

 Al 
  0.7759628  0.4969383  0.2492537

 Al 
  0.7458678  0.7488664  0.0018019

 Al 
  0.5127630  0.9913259  0.5076840

 Al 
  0.5026781  0.2574254  0.7315182

 Al 
  0.7495805  0.9880303  0.7509752

 Al 
  0.7412801  0.2564366  0.5080417

 Al 
  0.4980038  0.5254678  0.4901379

 Al 
  0.5033587  0.7596394  0.7520593

 Al 
  0.7481164  0.4940857  0.7595540

 Al 
  0.7607804  0.7273303  0.5080974

