32 
charge = 0 
 Al 
  0.9893607  0.9902876  0.9973071

 Al 
  0.0150265  0.2546186  0.2402418

 Al 
  0.2377407  0.0112890  0.2555963

 Al 
  0.2275123  0.2551681  0.9964940

 Al 
  0.4882444  0.9903705  0.0008465

 Al 
  0.4956970  0.2448654  0.2488095

 Al 
  0.7663977  0.0015309  0.2533229

 Al 
  0.7459655  0.2423605  0.9839872

 Al 
  0.9939694  0.5080008  0.9980409

 Al 
  0.0051866  0.7424137  0.2518081

 Al 
  0.2501398  0.5163866  0.2427751

 Al 
  0.2388892  0.7349413  0.9979023

 Al 
  0.0021138  0.9968529  0.5086320

 Al 
  0.0158841  0.2386466  0.7466611

 Al 
  0.2488045  0.0027016  0.7624449

 Al 
  0.2427380  0.2559886  0.5041854

 Al 
  0.9877729  0.4856876  0.5008292

 Al 
  0.0054799  0.7579761  0.7480447

 Al 
  0.2340020  0.5089129  0.7464420

 Al 
  0.2557002  0.7561185  0.5115118

 Al 
  0.4980917  0.5043253  0.0012301

 Al 
  0.5190052  0.7536397  0.2430177

 Al 
  0.7726375  0.4956698  0.2452478

 Al 
  0.7437998  0.7498404  0.0035852

 Al 
  0.5125959  0.9882481  0.5142332

 Al 
  0.4994282  0.2627197  0.7322769

 Al 
  0.7522214  0.9890154  0.7515333

 Al 
  0.7405178  0.2565096  0.5066222

 Al 
  0.5006039  0.5187441  0.4817311

 Al 
  0.5073647  0.7591617  0.7539973

 Al 
  0.7489048  0.4945498  0.7584513

 Al 
  0.7582050  0.7324600  0.5121937

