32 
charge = 0 
 Al 
  0.9891429  0.9910413  0.9966524

 Al 
  0.0157133  0.2550431  0.2409225

 Al 
  0.2378496  0.0112915  0.2550938

 Al 
  0.2274863  0.2545765  0.9964507

 Al 
  0.4885921  0.9905128  0.0003106

 Al 
  0.4957143  0.2445646  0.2483615

 Al 
  0.7657764  0.0011645  0.2527499

 Al 
  0.7456586  0.2420734  0.9840095

 Al 
  0.9940721  0.5082038  0.9979753

 Al 
  0.0044503  0.7424484  0.2520940

 Al 
  0.2495891  0.5163049  0.2431959

 Al 
  0.2388756  0.7348176  0.9976462

 Al 
  0.0020692  0.9968455  0.5086419

 Al 
  0.0161019  0.2382407  0.7472266

 Al 
  0.2486696  0.0026249  0.7627061

 Al 
  0.2423345  0.2557274  0.5048240

 Al 
  0.9880860  0.4858955  0.5012512

 Al 
  0.0057559  0.7581679  0.7486164

 Al 
  0.2339364  0.5089785  0.7462576

 Al 
  0.2561049  0.7562299  0.5119239

 Al 
  0.4980546  0.5046272  0.0006930

 Al 
  0.5193208  0.7537746  0.2424967

 Al 
  0.7731610  0.4958443  0.2457131

 Al 
  0.7439718  0.7497488  0.0034169

 Al 
  0.5126405  0.9885538  0.5135847

 Al 
  0.4998614  0.2621343  0.7320925

 Al 
  0.7519157  0.9888458  0.7514863

 Al 
  0.7405376  0.2565442  0.5068375

 Al 
  0.5003069  0.5195956  0.4826197

 Al 
  0.5069514  0.7593287  0.7537746

 Al 
  0.7487996  0.4944582  0.7586134

 Al 
  0.7584996  0.7317905  0.5117643

