32 
charge = 0 
 Al 
  0.9933184  0.9818326  0.0054861

 Al 
  0.0050146  0.2496857  0.2332013

 Al 
  0.2375019  0.0096852  0.2609858

 Al 
  0.2303265  0.2620056  0.9967378

 Al 
  0.4846926  0.9902950  0.0076692

 Al 
  0.4959284  0.2485397  0.2537721

 Al 
  0.7725546  0.0057200  0.2604327

 Al 
  0.7496584  0.2457490  0.9849921

 Al 
  0.9926427  0.5047448  0.9980360

 Al 
  0.0135204  0.7431154  0.2491807

 Al 
  0.2565640  0.5156861  0.2391218

 Al 
  0.2399634  0.7387840  0.0006460

 Al 
  0.0025630  0.9971128  0.5078263

 Al 
  0.0107012  0.2443914  0.7402814

 Al 
  0.2505643  0.0032028  0.7586407

 Al 
  0.2482736  0.2590651  0.4958566

 Al 
  0.9858955  0.4843584  0.4962997

 Al 
  0.0018860  0.7546322  0.7413940

 Al 
  0.2359834  0.5073944  0.7482315

 Al 
  0.2501077  0.7546334  0.5058401

 Al 
  0.4987030  0.4999072  0.0070294

 Al 
  0.5143310  0.7526731  0.2502475

 Al 
  0.7639869  0.4934087  0.2397084

 Al 
  0.7428023  0.7506596  0.0052139

 Al 
  0.5115019  0.9856963  0.5201500

 Al 
  0.4933902  0.2694075  0.7360737

 Al 
  0.7560108  0.9922232  0.7521657

 Al 
  0.7411861  0.2552238  0.5033872

 Al 
  0.5042349  0.5074365  0.4728862

 Al 
  0.5112123  0.7548686  0.7566432

 Al 
  0.7503354  0.4963801  0.7557114

 Al 
  0.7546458  0.7414831  0.5161490

