32 
charge = 0 
 Al 
  0.9901280  0.9880439  0.9993391

 Al 
  0.0127902  0.2533352  0.2382667

 Al 
  0.2374870  0.0111430  0.2570690

 Al 
  0.2277969  0.2569539  0.9966066

 Al 
  0.4872333  0.9900673  0.0024962

 Al 
  0.4956760  0.2458010  0.2501448

 Al 
  0.7681971  0.0026397  0.2550827

 Al 
  0.7469024  0.2432305  0.9840206

 Al 
  0.9936488  0.5073103  0.9981795

 Al 
  0.0073994  0.7424150  0.2509987

 Al 
  0.2518044  0.5165140  0.2416081

 Al 
  0.2389981  0.7355057  0.9986696

 Al 
  0.0022338  0.9968826  0.5085392

 Al 
  0.0150005  0.2399535  0.7449780

 Al 
  0.2492352  0.0028934  0.7615960

 Al 
  0.2440300  0.2567695  0.5021905

 Al 
  0.9869722  0.4851468  0.4996003

 Al 
  0.0046124  0.7573140  0.7463170

 Al 
  0.2342966  0.5086431  0.7469803

 Al 
  0.2543995  0.7557819  0.5101950

 Al 
  0.4982105  0.5033451  0.0028105

 Al 
  0.5179669  0.7532721  0.2446785

 Al 
  0.7708542  0.4951178  0.2438357

 Al 
  0.7433691  0.7500903  0.0040543

 Al 
  0.5124202  0.9874029  0.5160487

 Al 
  0.4980397  0.2644671  0.7329711

 Al 
  0.7531607  0.9896181  0.7516682

 Al 
  0.7405401  0.2563351  0.5059044

 Al 
  0.5015049  0.5160598  0.4791706

 Al 
  0.5085379  0.7584761  0.7546668

 Al 
  0.7492389  0.4948889  0.7579018

 Al 
  0.7573140  0.7345849  0.5134139

