32 
charge = 0 
 Al 
  0.9929100  0.9824625  0.0048314

 Al 
  0.0059205  0.2500582  0.2336877

 Al 
  0.2374363  0.0099079  0.2605997

 Al 
  0.2299366  0.2614883  0.9967390

 Al 
  0.4849265  0.9901849  0.0070925

 Al 
  0.4958752  0.2482637  0.2534169

 Al 
  0.7721746  0.0054168  0.2598559

 Al 
  0.7493688  0.2454878  0.9848250

 Al 
  0.9927528  0.5050493  0.9980942

 Al 
  0.0129127  0.7430028  0.2493292

 Al 
  0.2560764  0.5158717  0.2393161

 Al 
  0.2398087  0.7383211  0.0004690

 Al 
  0.0025234  0.9970719  0.5079291

 Al 
  0.0112692  0.2438778  0.7407628

 Al 
  0.2504245  0.0031855  0.7589884

 Al 
  0.2477996  0.2588176  0.4965608

 Al 
  0.9859178  0.4843807  0.4966363

 Al 
  0.0021806  0.7549738  0.7418964

 Al 
  0.2357458  0.5075528  0.7481288

 Al 
  0.2505866  0.7547770  0.5063326

 Al 
  0.4986350  0.5003106  0.0066148

 Al 
  0.5147579  0.7526942  0.2496065

 Al 
  0.7648309  0.4935894  0.2401441

 Al 
  0.7428159  0.7506064  0.0050975

 Al 
  0.5116343  0.9858138  0.5198010

 Al 
  0.4939199  0.2688963  0.7356703

 Al 
  0.7557015  0.9918804  0.7520952

 Al 
  0.7410821  0.2553883  0.5036756

 Al 
  0.5039342  0.5083981  0.4734530

 Al 
  0.5109908  0.7553710  0.7564304

 Al 
  0.7502129  0.4961858  0.7559910

 Al 
  0.7549366  0.7407121  0.5159324

