32 
charge = 0 
 Al 
  0.9913977  0.9851505  0.0021150

 Al 
  0.0094735  0.2516460  0.2358336

 Al 
  0.2373385  0.0106591  0.2589228

 Al 
  0.2286335  0.2592929  0.9967056

 Al 
  0.4859945  0.9899559  0.0047758

 Al 
  0.4957279  0.2470682  0.2518588

 Al 
  0.7703740  0.0040864  0.2574835

 Al 
  0.7481585  0.2443877  0.9842966

 Al 
  0.9932021  0.5062361  0.9982229

 Al 
  0.0102730  0.7426229  0.2500619

 Al 
  0.2540035  0.5163791  0.2403012

 Al 
  0.2393087  0.7366974  0.9996399

 Al 
  0.0023774  0.9969506  0.5082892

 Al 
  0.0133459  0.2418581  0.7428011

 Al 
  0.2498366  0.0030753  0.7603398

 Al 
  0.2458863  0.2578041  0.4993998

 Al 
  0.9862457  0.4846344  0.4980570

 Al 
  0.0033946  0.7562386  0.7440374

 Al 
  0.2349116  0.5081493  0.7476202

 Al 
  0.2525209  0.7553079  0.5083003

 Al 
  0.4983974  0.5018836  0.0048092

 Al 
  0.5164187  0.7528984  0.2470781

 Al 
  0.7680350  0.4943456  0.2419558

 Al 
  0.7429892  0.7503737  0.0046074

 Al 
  0.5120860  0.9864722  0.5181340

 Al 
  0.4960274  0.2667442  0.7341864

 Al 
  0.7544379  0.9906354  0.7518576

 Al 
  0.7407381  0.2559477  0.5048240

 Al 
  0.5027214  0.5122717  0.4760705

 Al 
  0.5099042  0.7571420  0.7555591

 Al 
  0.7497203  0.4954730  0.7570232

 Al 
  0.7561197  0.7376095  0.5148334

