32 
charge = 0 
 Al 
  0.9973306  0.9770346  0.0106331

 Al 
  0.9969593  0.2469803  0.2297931

 Al 
  0.2388248  0.0072026  0.2638025

 Al 
  0.2347483  0.2659151  0.9966165

 Al 
  0.4832682  0.9921291  0.0127283

 Al 
  0.4967217  0.2503923  0.2561284

 Al 
  0.7745235  0.0077174  0.2651156

 Al 
  0.7518650  0.2477365  0.9870254

 Al 
  0.9918011  0.5020432  0.9971091

 Al 
  0.0177887  0.7442503  0.2485248

 Al 
  0.2601752  0.5130526  0.2382803

 Al 
  0.2418779  0.7436439  0.0016299

 Al 
  0.0030184  0.9976660  0.5067571

 Al 
  0.0050963  0.2490372  0.7365489

 Al 
  0.2515940  0.0032300  0.7554676

 Al 
  0.2522239  0.2612086  0.4898384

 Al 
  0.9866776  0.4849116  0.4934867

 Al 
  0.9995471  0.7512178  0.7377172

 Al 
  0.2385030  0.5059638  0.7486709

 Al 
  0.2461264  0.7530927  0.5015692

 Al 
  0.4994678  0.4962514  0.0100069

 Al 
  0.5103794  0.7530283  0.2560009

 Al 
  0.7560566  0.4919905  0.2362680

 Al 
  0.7432095  0.7511014  0.0062460

 Al 
  0.5099389  0.9855094  0.5221400

 Al 
  0.4888100  0.2733875  0.7401032

 Al 
  0.7585627  0.9957935  0.7531310

 Al 
  0.7423222  0.2533959  0.5008910

 Al 
  0.5068239  0.4992810  0.4695721

 Al 
  0.5122308  0.7495075  0.7584600

 Al 
  0.7513737  0.4982773  0.7528848

 Al 
  0.7521509  0.7480496  0.5168544

