32 
charge = 0 
 Al 
  0.9964012  0.9779615  0.0096183

 Al 
  0.9987105  0.2474704  0.2304044

 Al 
  0.2384152  0.0078189  0.2632778

 Al 
  0.2336394  0.2651663  0.9966549

 Al 
  0.4834736  0.9915957  0.0116269

 Al 
  0.4964940  0.2500965  0.2557497

 Al 
  0.7743193  0.0074056  0.2641651

 Al 
  0.7514430  0.2473553  0.9865019

 Al 
  0.9919620  0.5026236  0.9973702

 Al 
  0.0170412  0.7439978  0.2485644

 Al 
  0.2595045  0.5137790  0.2383335

 Al 
  0.2413680  0.7424781  0.0015074

 Al 
  0.0028996  0.9975137  0.5070120

 Al 
  0.0063932  0.2480088  0.7372828

 Al 
  0.2514059  0.0032399  0.7561754

 Al 
  0.2514108  0.2607420  0.4911143

 Al 
  0.9863633  0.4846716  0.4940981

 Al 
  0.0000124  0.7520247  0.7383941

 Al 
  0.2378929  0.5062707  0.7486511

 Al 
  0.2469445  0.7534813  0.5024838

 Al 
  0.4992760  0.4970608  0.0094636

 Al 
  0.5112767  0.7528637  0.2547337

 Al 
  0.7578412  0.4922677  0.2369511

 Al 
  0.7430387  0.7510000  0.0060071

 Al 
  0.5103473  0.9854166  0.5218665

 Al 
  0.4897864  0.2726028  0.7391565

 Al 
  0.7580330  0.9949297  0.7528563

 Al 
  0.7420425  0.2538501  0.5014220

 Al 
  0.5062695  0.5009950  0.4700238

 Al 
  0.5121615  0.7508094  0.7580701

 Al 
  0.7511522  0.4978417  0.7535605

 Al 
  0.7526806  0.7466598  0.5169002

