32 
charge = 0 
 Al 
  0.9945980  0.9800554  0.0073598

 Al 
  0.0022932  0.2486473  0.2318747

 Al 
  0.2377952  0.0089476  0.2620563

 Al 
  0.2316296  0.2634610  0.9967155

 Al 
  0.4840775  0.9907406  0.0093857

 Al 
  0.4961277  0.2492958  0.2547349

 Al 
  0.7735063  0.0065455  0.2621034

 Al 
  0.7504777  0.2464866  0.9855725

 Al 
  0.9923308  0.5038253  0.9978033

 Al 
  0.0151948  0.7434818  0.2488256

 Al 
  0.2579303  0.5149955  0.2386652

 Al 
  0.2404955  0.7402802  0.0010990

 Al 
  0.0026929  0.9972600  0.5074947

 Al 
  0.0089117  0.2459433  0.7389152

 Al 
  0.2509579  0.0032362  0.7575887

 Al 
  0.2496659  0.2597953  0.4937763

 Al 
  0.9859685  0.4843919  0.4953307

 Al 
  0.0010396  0.7535580  0.7399931

 Al 
  0.2367544  0.5069105  0.7484766

 Al 
  0.2487030  0.7541731  0.5043760

 Al 
  0.4989283  0.4986894  0.0081741

 Al 
  0.5130365  0.7526806  0.2521769

 Al 
  0.7613905  0.4928914  0.2384610

 Al 
  0.7428333  0.7508081  0.0055529

 Al 
  0.5110564  0.9854586  0.5210386

 Al 
  0.4918172  0.2708616  0.7373459

 Al 
  0.7569081  0.9933196  0.7524170

 Al 
  0.7415276  0.2546805  0.5025283

 Al 
  0.5051223  0.5046013  0.4714197

 Al 
  0.5117507  0.7532350  0.7572682

 Al 
  0.7506943  0.4969878  0.7548302

 Al 
  0.7537845  0.7437565  0.5166390

