32 
charge = 0 
 Al 
  0.0011744  0.9741609  0.0139300

 Al 
  0.9903260  0.2457292  0.2281261

 Al 
  0.2411898  0.0044639  0.2653792

 Al 
  0.2397963  0.2681847  0.9964680

 Al 
  0.4831407  0.9950002  0.0170660

 Al 
  0.4979531  0.2506844  0.2566952

 Al 
  0.7739184  0.0080330  0.2683419

 Al 
  0.7531286  0.2488850  0.9894349

 Al 
  0.9913569  0.4999084  0.9958096

 Al 
  0.0195188  0.7450485  0.2489444

 Al 
  0.2620539  0.5094203  0.2387394

 Al 
  0.2445176  0.7485954  0.0016163

 Al 
  0.0036199  0.9984704  0.5056792

 Al 
  0.9997352  0.2531892  0.7341208

 Al 
  0.2521138  0.0031385  0.7526026

 Al 
  0.2550282  0.2630575  0.4850948

 Al 
  0.9886330  0.4865737  0.4908606

 Al 
  0.9979791  0.7477080  0.7358052

 Al 
  0.2411898  0.5048970  0.7482736

 Al 
  0.2433122  0.7511497  0.4981387

 Al 
  0.5003366  0.4930783  0.0115155

 Al 
  0.5066049  0.7541582  0.2610440

 Al 
  0.7489889  0.4911811  0.2340231

 Al 
  0.7443567  0.7515915  0.0074043

 Al 
  0.5078684  0.9866640  0.5224197

 Al 
  0.4851827  0.2759418  0.7441525

 Al 
  0.7604735  0.9996584  0.7546693

 Al 
  0.7436266  0.2513217  0.4989246

 Al 
  0.5089030  0.4930659  0.4694867

 Al 
  0.5115650  0.7437553  0.7599574

 Al 
  0.7522202  0.5000223  0.7498589

 Al 
  0.7501893  0.7532622  0.5154188

