32 
charge = 0 
 Al 
  0.9982736  0.9761905  0.0115724

 Al 
  0.9952428  0.2465596  0.2292622

 Al 
  0.2393037  0.0065554  0.2642728

 Al 
  0.2359190  0.2665920  0.9965769

 Al 
  0.4831295  0.9927355  0.0138186

 Al 
  0.4969803  0.2506076  0.2564168

 Al 
  0.7745904  0.0079427  0.2660091

 Al 
  0.7522449  0.2480805  0.9875823

 Al 
  0.9916588  0.5014789  0.9968195

 Al 
  0.0184137  0.7444891  0.2485434

 Al 
  0.2607680  0.5122519  0.2382976

 Al 
  0.2424434  0.7448431  0.0016992

 Al 
  0.0031496  0.9978355  0.5064960

 Al 
  0.0037820  0.2500668  0.7358670

 Al 
  0.2517586  0.0032127  0.7547584

 Al 
  0.2529924  0.2616715  0.4886008

 Al 
  0.9870650  0.4852198  0.4928692

 Al 
  0.9991127  0.7503849  0.7371207

 Al 
  0.2391379  0.5056705  0.7486449

 Al 
  0.2453530  0.7526719  0.5006769

 Al 
  0.4996696  0.4954470  0.0104834

 Al 
  0.5094674  0.7532412  0.2572633

 Al 
  0.7542745  0.4917405  0.2356331

 Al 
  0.7434273  0.7512091  0.0065009

 Al 
  0.5094909  0.9856802  0.5223256

 Al 
  0.4878607  0.2741127  0.7410747

 Al 
  0.7590713  0.9966969  0.7534454

 Al 
  0.7426179  0.2529157  0.5003762

 Al 
  0.5073647  0.4976313  0.4692874

 Al 
  0.5122073  0.7481498  0.7588424

 Al 
  0.7515903  0.4987142  0.7521806

 Al 
  0.7516373  0.7494010  0.5166861

