32 
charge = 0 
 Al 
  0.0006831  0.9744443  0.0135847

 Al 
  0.9911205  0.2458220  0.2282684

 Al 
  0.2408247  0.0048265  0.2652245

 Al 
  0.2391119  0.2679669  0.9964828

 Al 
  0.4830912  0.9945733  0.0165252

 Al 
  0.4977687  0.2507376  0.2567125

 Al 
  0.7741250  0.0080838  0.2679904

 Al 
  0.7530085  0.2487761  0.9891082

 Al 
  0.9913928  0.5001572  0.9959915

 Al 
  0.0194174  0.7449767  0.2488416

 Al 
  0.2618917  0.5099364  0.2386268

 Al 
  0.2441278  0.7479568  0.0016596

 Al 
  0.0035332  0.9983503  0.5058190

 Al 
  0.0004195  0.2526620  0.7343820

 Al 
  0.2520692  0.0031508  0.7529664

 Al 
  0.2547176  0.2628261  0.4856579

 Al 
  0.9883310  0.4863027  0.4912183

 Al 
  0.9981523  0.7481734  0.7359759

 Al 
  0.2408321  0.5050134  0.7483677

 Al 
  0.2436228  0.7514343  0.4985471

 Al 
  0.5002190  0.4934669  0.0113856

 Al 
  0.5070987  0.7539775  0.2604116

 Al 
  0.7498614  0.4912517  0.2342607

 Al 
  0.7441736  0.7515197  0.0072348

 Al 
  0.5081704  0.9864487  0.5224494

 Al 
  0.4856109  0.2756745  0.7436204

 Al 
  0.7602532  0.9991374  0.7544342

 Al 
  0.7434434  0.2516039  0.4991572

 Al 
  0.5086555  0.4937874  0.4693394

 Al 
  0.5117321  0.7445213  0.7597743

 Al 
  0.7521175  0.4998057  0.7502710

 Al 
  0.7504208  0.7526348  0.5157109

