32 
charge = 0 
 Al 
  0.0026645  0.9734530  0.0148532

 Al 
  0.9880093  0.2455671  0.2278142

 Al 
  0.2424113  0.0033476  0.2657740

 Al 
  0.2419311  0.2687218  0.9964284

 Al 
  0.4834129  0.9964074  0.0186921

 Al 
  0.4985620  0.2503515  0.2564799

 Al 
  0.7730546  0.0077051  0.2693010

 Al 
  0.7534144  0.2491535  0.9904534

 Al 
  0.9912937  0.4991919  0.9952317

 Al 
  0.0196141  0.7451945  0.2493305

 Al 
  0.2624090  0.5077682  0.2391614

 Al 
  0.2458071  0.7505334  0.0014257

 Al 
  0.0039045  0.9988689  0.5052559

 Al 
  0.9976561  0.2547980  0.7334043

 Al 
  0.2522115  0.0031026  0.7514987

 Al 
  0.2558846  0.2637506  0.4834526

 Al 
  0.9896342  0.4875080  0.4897060

 Al 
  0.9974952  0.7462588  0.7354054

 Al 
  0.2423036  0.5045839  0.7479135

 Al 
  0.2424558  0.7502079  0.4969494

 Al 
  0.5007029  0.4919286  0.0118039

 Al 
  0.5050740  0.7547683  0.2629548

 Al 
  0.7463975  0.4910363  0.2333931

 Al 
  0.7449743  0.7518266  0.0079637

 Al 
  0.5068747  0.9874400  0.5222328

 Al 
  0.4839439  0.2766497  0.7457960

 Al 
  0.7611046  0.0012933  0.7554614

 Al 
  0.7442206  0.2504356  0.4982488

 Al 
  0.5096245  0.4909980  0.4702218

 Al 
  0.5109153  0.7413692  0.7605007

 Al 
  0.7525209  0.5006670  0.7485521

 Al 
  0.7495186  0.7551148  0.5143384

