32 
charge = 0 
 Al 
  0.9997116  0.9750780  0.0128360

 Al 
  0.9927392  0.2460621  0.2286087

 Al 
  0.2401577  0.0055356  0.2648805

 Al 
  0.2377902  0.2674719  0.9965187

 Al 
  0.4830516  0.9937800  0.0154435

 Al 
  0.4974283  0.2507599  0.2566692

 Al 
  0.7744233  0.0081036  0.2672430

 Al 
  0.7527363  0.2485261  0.9884758

 Al 
  0.9914819  0.5006708  0.9963405

 Al 
  0.0191129  0.7448060  0.2486808

 Al 
  0.2615044  0.5109153  0.2384474

 Al 
  0.2434038  0.7466945  0.0017103

 Al 
  0.0033699  0.9981276  0.5060938

 Al 
  0.0017771  0.2516163  0.7349401

 Al 
  0.2519615  0.0031781  0.7536879

 Al 
  0.2540617  0.2623632  0.4868101

 Al 
  0.9877741  0.4858151  0.4919026

 Al 
  0.9985162  0.7490817  0.7363757

 Al 
  0.2401354  0.5052621  0.7485149

 Al 
  0.2442787  0.7519640  0.4993812

 Al 
  0.4999913  0.4942528  0.0110737

 Al 
  0.5080652  0.7536483  0.2591505

 Al 
  0.7516175  0.4914212  0.2347718

 Al 
  0.7438407  0.7513873  0.0069217

 Al 
  0.5087360  0.9860811  0.5224556

 Al 
  0.4864895  0.2750941  0.7425808

 Al 
  0.7597953  0.9981288  0.7540023

 Al 
  0.7430969  0.2521484  0.4996337

 Al 
  0.5081506  0.4952775  0.4691847

 Al 
  0.5119945  0.7460138  0.7594055

 Al 
  0.7519083  0.4993701  0.7510631

 Al 
  0.7508960  0.7513626  0.5161985

