32 
charge = 0 
 Al 
  0.0031657  0.9732687  0.0151230

 Al 
  0.9872605  0.2455534  0.2277511

 Al 
  0.2428642  0.0029664  0.2658841

 Al 
  0.2426712  0.2688592  0.9964185

 Al 
  0.4835491  0.9969209  0.0192354

 Al 
  0.4987847  0.2501782  0.2563536

 Al 
  0.7726820  0.0075343  0.2695869

 Al 
  0.7534837  0.2492216  0.9908049

 Al 
  0.9912888  0.4989629  0.9950299

 Al 
  0.0195733  0.7452181  0.2494852

 Al 
  0.2624821  0.5071841  0.2393297

 Al 
  0.2462799  0.7511843  0.0013428

 Al 
  0.0040060  0.9990161  0.5051124

 Al 
  0.9969568  0.2553450  0.7331890

 Al 
  0.2522326  0.0030939  0.7511262

 Al 
  0.2561445  0.2639807  0.4829216

 Al 
  0.9899993  0.4878583  0.4892914

 Al 
  0.9973454  0.7457576  0.7353089

 Al 
  0.2426860  0.5044924  0.7477662

 Al 
  0.2421947  0.7498626  0.4965670

 Al 
  0.5008292  0.4915536  0.0118633

 Al 
  0.5045456  0.7549923  0.2635971

 Al 
  0.7455448  0.4910116  0.2332112

 Al 
  0.7452020  0.7519133  0.0081692

 Al 
  0.5065133  0.9877444  0.5221388

 Al 
  0.4835491  0.2768502  0.7463616

 Al 
  0.7613039  0.0018613  0.7557534

 Al 
  0.7444359  0.2501275  0.4980323

 Al 
  0.5098584  0.4903408  0.4705683

 Al 
  0.5106505  0.7405450  0.7606777

 Al 
  0.7526162  0.5008787  0.7480904

 Al 
  0.7493033  0.7557237  0.5139102

