32 
charge = 0 
 Al 
  0.0046842  0.9728813  0.0158148

 Al 
  0.9850997  0.2456326  0.2276855

 Al 
  0.2443567  0.0018031  0.2661477

 Al 
  0.2449594  0.2691364  0.9963987

 Al 
  0.4841047  0.9985929  0.0208628

 Al 
  0.4995174  0.2494629  0.2558054

 Al 
  0.7713022  0.0068239  0.2703356

 Al 
  0.7536112  0.2493639  0.9918841

 Al 
  0.9913309  0.4983095  0.9943951

 Al 
  0.0192206  0.7452032  0.2500235

 Al 
  0.2625637  0.5053327  0.2399114

 Al 
  0.2478330  0.7531372  0.0010358

 Al 
  0.0043377  0.9995000  0.5046780

 Al 
  0.9948493  0.2570170  0.7326147

 Al 
  0.2522536  0.0030791  0.7499963

 Al 
  0.2568351  0.2646614  0.4813858

 Al 
  0.9911811  0.4890327  0.4879424

 Al 
  0.9969247  0.7442094  0.7351307

 Al 
  0.2438691  0.5042597  0.7472415

 Al 
  0.2414979  0.7487228  0.4954643

 Al 
  0.5012215  0.4904646  0.0119289

 Al 
  0.5028996  0.7557188  0.2655351

 Al 
  0.7430325  0.4910202  0.2327608

 Al 
  0.7459457  0.7521967  0.0088473

 Al 
  0.5053364  0.9887988  0.5217700

 Al 
  0.4824291  0.2773378  0.7481041

 Al 
  0.7618558  0.0036335  0.7567212

 Al 
  0.7451339  0.2491622  0.4974048

 Al 
  0.5105354  0.4884795  0.4719271

 Al 
  0.5097087  0.7379907  0.7611999

 Al 
  0.7528860  0.5015086  0.7466264

 Al 
  0.7486808  0.7575256  0.5124214

