32 
charge = 0 
 Al 
  0.0077100  0.9729667  0.0166427

 Al 
  0.9812905  0.2463504  0.2281768

 Al 
  0.2479060  0.9994480  0.2663977

 Al 
  0.2497005  0.2690189  0.9964148

 Al 
  0.4859524  0.0024813  0.0239889

 Al 
  0.5012660  0.2471487  0.2540023

 Al 
  0.7673531  0.0044985  0.2712477

 Al 
  0.7534528  0.2493478  0.9940783

 Al 
  0.9917195  0.4971660  0.9930399

 Al 
  0.0174434  0.7447465  0.2513700

 Al 
  0.2620885  0.5013069  0.2413494

 Al 
  0.2515643  0.7569056  0.0002166

 Al 
  0.0051000  0.0006584  0.5038043

 Al 
  0.9907245  0.2604859  0.7318153

 Al 
  0.2521014  0.0031397  0.7477464

 Al 
  0.2577533  0.2659126  0.4786533

 Al 
  0.9938654  0.4918754  0.4847508

 Al 
  0.9962118  0.7409757  0.7352631

 Al 
  0.2462972  0.5039936  0.7458344

 Al 
  0.2405227  0.7459792  0.4935412

 Al 
  0.5020346  0.4885686  0.0115019

 Al 
  0.4993726  0.7573313  0.2694000

 Al 
  0.7383657  0.4914695  0.2323672

 Al 
  0.7476486  0.7528625  0.0104574

 Al 
  0.5026014  0.9915660  0.5206958

 Al 
  0.4806074  0.2776731  0.7517313

 Al 
  0.7626999  0.0073957  0.7590280

 Al 
  0.7467799  0.2470992  0.4962910

 Al 
  0.5117593  0.4853336  0.4760829

 Al 
  0.5072385  0.7326320  0.7621516

 Al 
  0.7532870  0.5027004  0.7433469

 Al 
  0.7475806  0.7609636  0.5086147

