32 
charge = 0 
 Al 
  0.0041768  0.9729815  0.0156044

 Al 
  0.9858052  0.2455856  0.2276855

 Al 
  0.2438357  0.0021942  0.2660710

 Al 
  0.2441859  0.2690671  0.9964036

 Al 
  0.4838944  0.9980137  0.0203220

 Al 
  0.4992624  0.2497352  0.2560158

 Al 
  0.7718059  0.0070937  0.2701054

 Al 
  0.7535840  0.2493268  0.9915202

 Al 
  0.9913074  0.4985224  0.9946117

 Al 
  0.0193765  0.7452230  0.2498329

 Al 
  0.2625600  0.5059651  0.2397060

 Al 
  0.2472922  0.7524875  0.0011472

 Al 
  0.0042226  0.9993305  0.5048240

 Al 
  0.9955522  0.2564539  0.7327942

 Al 
  0.2522536  0.0030815  0.7503737

 Al 
  0.2566197  0.2644362  0.4818883

 Al 
  0.9907740  0.4886219  0.4884102

 Al 
  0.9970596  0.7447329  0.7351715

 Al 
  0.2434694  0.5043302  0.7474308

 Al 
  0.2417158  0.7491201  0.4958232

 Al 
  0.5010891  0.4908210  0.0119264

 Al 
  0.5034577  0.7554676  0.2648879

 Al 
  0.7438617  0.4910029  0.2328944

 Al 
  0.7456883  0.7520977  0.0086110

 Al 
  0.5057448  0.9884226  0.5219061

 Al 
  0.4827905  0.2771954  0.7475150

 Al 
  0.7616801  0.0030320  0.7563833

 Al 
  0.7448913  0.2494901  0.4976090

 Al 
  0.5103138  0.4890810  0.4714197

 Al 
  0.5100465  0.7388557  0.7610279

 Al 
  0.7527994  0.5013007  0.7471276

 Al 
  0.7488837  0.7569291  0.5129511

