32 
charge = 0 
 Al 
  0.0051928  0.9728132  0.0160054

 Al 
  0.9844117  0.2456995  0.2277078

 Al 
  0.2448988  0.0014096  0.2662145

 Al 
  0.2457415  0.2691810  0.9963962

 Al 
  0.4843424  0.9991943  0.0214012

 Al 
  0.4997834  0.2491585  0.2555666

 Al 
  0.7707527  0.0065207  0.2705448

 Al 
  0.7536248  0.2493886  0.9922504

 Al 
  0.9913655  0.4981028  0.9941760

 Al 
  0.0190250  0.7451686  0.2502265

 Al 
  0.2625439  0.5046879  0.2401280

 Al 
  0.2483986  0.7537845  0.0009158

 Al 
  0.0044552  0.9996758  0.5045320

 Al 
  0.9941476  0.2575863  0.7324489

 Al 
  0.2522462  0.0030791  0.7496176

 Al 
  0.2570343  0.2648842  0.4808957

 Al 
  0.9916031  0.4894634  0.4874561

 Al 
  0.9967935  0.7436798  0.7351084

 Al 
  0.2442713  0.5041953  0.7470385

 Al 
  0.2412937  0.7483070  0.4951141

 Al 
  0.5013564  0.4901181  0.0119103

 Al 
  0.5023316  0.7559774  0.2661848

 Al 
  0.7422157  0.4910524  0.2326444

 Al 
  0.7462131  0.7522994  0.0090924

 Al 
  0.5049144  0.9891998  0.5216190

 Al 
  0.4820813  0.2774578  0.7486993

 Al 
  0.7620242  0.0042436  0.7570727

 Al 
  0.7453851  0.2488280  0.4972056

 Al 
  0.5107532  0.4878979  0.4724877

 Al 
  0.5093485  0.7371157  0.7613682

 Al 
  0.7529677  0.5017140  0.7461103

 Al 
  0.7484840  0.7581172  0.5118596

