32 
charge = 0 
 Al 
  0.0036706  0.9731115  0.0153742

 Al 
  0.9865254  0.2455584  0.2277078

 Al 
  0.2433382  0.0025816  0.2659831

 Al 
  0.2434224  0.2689743  0.9964098

 Al 
  0.4837087  0.9974556  0.0197787

 Al 
  0.4990186  0.2499728  0.2561990

 Al 
  0.7722662  0.0073301  0.2698555

 Al 
  0.7535407  0.2492797  0.9911601

 Al 
  0.9912925  0.4987402  0.9948220

 Al 
  0.0194941  0.7452280  0.2496535

 Al 
  0.2625328  0.5065826  0.2395117

 Al 
  0.2467737  0.7518353  0.0012487

 Al 
  0.0041124  0.9991696  0.5049688

 Al 
  0.9962551  0.2558970  0.7329860

 Al 
  0.2522462  0.0030865  0.7507512

 Al 
  0.2563895  0.2642097  0.4824006

 Al 
  0.9903792  0.4882295  0.4888595

 Al 
  0.9971994  0.7452502  0.7352309

 Al 
  0.2430758  0.5044082  0.7476053

 Al 
  0.2419484  0.7495000  0.4961908

 Al 
  0.5009579  0.4911848  0.0119041

 Al 
  0.5040060  0.7552250  0.2642406

 Al 
  0.7446995  0.4910004  0.2330442

 Al 
  0.7454396  0.7520036  0.0083845

 Al 
  0.5061358  0.9880711  0.5220299

 Al 
  0.4831642  0.2770333  0.7469346

 Al 
  0.7614957  0.0024405  0.7560616

 Al 
  0.7446587  0.2498119  0.4978182

 Al 
  0.5100874  0.4897022  0.4709680

 Al 
  0.5103596  0.7397072  0.7608547

 Al 
  0.7527103  0.5010903  0.7476165

 Al 
  0.7490916  0.7563289  0.5134474

