32 
charge = 0 
 Al 
  0.0113064  0.9750458  0.0165759

 Al 
  0.9778674  0.2482971  0.2301953

 Al 
  0.2531892  0.9966227  0.2662455

 Al 
  0.2554304  0.2673803  0.9965918

 Al 
  0.4899287  0.0080998  0.0271806

 Al 
  0.5039775  0.2427763  0.2507512

 Al 
  0.7601839  0.9998998  0.2709779

 Al 
  0.7523489  0.2487897  0.9966524

 Al 
  0.9929348  0.4960819  0.9912504

 Al 
  0.0130365  0.7433308  0.2533031

 Al 
  0.2603002  0.4959680  0.2434347

 Al 
  0.2574650  0.7609388  0.9989345

 Al 
  0.0062150  0.0024900  0.5026942

 Al 
  0.9861764  0.2650129  0.7315269

 Al 
  0.2515061  0.0034862  0.7451587

 Al 
  0.2577954  0.2669806  0.4761720

 Al 
  0.9975991  0.4961215  0.4797906

 Al 
  0.9955373  0.7369326  0.7363373

 Al 
  0.2491523  0.5040147  0.7434570

 Al 
  0.2402666  0.7416972  0.4918853

 Al 
  0.5030172  0.4871566  0.0098188

 Al 
  0.4946092  0.7592743  0.2739580

 Al 
  0.7336233  0.4930548  0.2331543

 Al 
  0.7499678  0.7538352  0.0128570

 Al 
  0.4985830  0.9963876  0.5189112

 Al 
  0.4795654  0.2764133  0.7562559

 Al 
  0.7630278  0.0122110  0.7625118

 Al 
  0.7493082  0.2443988  0.4951995

 Al 
  0.5129239  0.4827335  0.4839587

 Al 
  0.5032424  0.7258279  0.7630204

 Al 
  0.7533699  0.5039986  0.7386478

 Al 
  0.7465447  0.7647418  0.5025976

