32 
charge = 0 
 Al 
  0.0139807  0.9790654  0.0154584

 Al 
  0.9767982  0.2508044  0.2335219

 Al 
  0.2578251  0.9946376  0.2656960

 Al 
  0.2591530  0.2642951  0.9970781

 Al 
  0.4950856  0.0127741  0.0282610

 Al 
  0.5066408  0.2384585  0.2479085

 Al 
  0.7523142  0.9948159  0.2689335

 Al 
  0.7505383  0.2479976  0.9984493

 Al 
  0.9947849  0.4955683  0.9898087

 Al 
  0.0072298  0.7415413  0.2546842

 Al 
  0.2578263  0.4917331  0.2449965

 Al 
  0.2634647  0.7631206  0.9979122

 Al 
  0.0072422  0.0043810  0.5016484

 Al 
  0.9837050  0.2688097  0.7320108

 Al 
  0.2505940  0.0041013  0.7435313

 Al 
  0.2564972  0.2669063  0.4754950

 Al 
  0.0006646  0.4997376  0.4749616

 Al 
  0.9951834  0.7340837  0.7381033

 Al 
  0.2508366  0.5041545  0.7410079

 Al 
  0.2411749  0.7375501  0.4915388

 Al 
  0.5036731  0.4874920  0.0073944

 Al 
  0.4906106  0.7601913  0.2769739

 Al 
  0.7312930  0.4955448  0.2355403

 Al 
  0.7517462  0.7546904  0.0149671

 Al 
  0.4950040  0.0017858  0.5173085

 Al 
  0.4805183  0.2730409  0.7594253

 Al 
  0.7622494  0.0157480  0.7656812

 Al 
  0.7517029  0.2422838  0.4945349

 Al 
  0.5132828  0.4821147  0.4926984

 Al 
  0.4994617  0.7208368  0.7630687

 Al 
  0.7528365  0.5048277  0.7343634

 Al 
  0.7460856  0.7669076  0.4970422

