32 
charge = 0 
 Al 
  0.0127593  0.9768489  0.0161168

 Al 
  0.9770432  0.2495211  0.2317224

 Al 
  0.2556557  0.9955089  0.2660153

 Al 
  0.2575924  0.2659930  0.9967848

 Al 
  0.4924026  0.0106356  0.0280271

 Al 
  0.5053438  0.2405104  0.2491931

 Al 
  0.7562509  0.9973355  0.2701648

 Al 
  0.7514987  0.2483912  0.9976474

 Al 
  0.9937949  0.4957589  0.9904695

 Al 
  0.0102384  0.7424373  0.2540988

 Al 
  0.2591035  0.4936699  0.2443208

 Al 
  0.2605069  0.7622717  0.9983578

 Al 
  0.0067484  0.0034429  0.5021719

 Al 
  0.9846493  0.2670264  0.7316866

 Al 
  0.2510779  0.0037671  0.7442107

 Al 
  0.2572954  0.2671044  0.4755990

 Al 
  0.9992562  0.4980694  0.4773031

 Al 
  0.9953220  0.7353213  0.7371591

 Al 
  0.2501658  0.5040988  0.7422170

 Al 
  0.2405908  0.7395587  0.4915487

 Al 
  0.5033934  0.4871021  0.0086530

 Al 
  0.4924769  0.7598980  0.2756918

 Al 
  0.7321519  0.4942107  0.2341505

 Al 
  0.7509504  0.7542869  0.0139820

 Al 
  0.4966945  0.9990557  0.5180573

 Al 
  0.4797931  0.2749851  0.7580503

 Al 
  0.7627791  0.0141837  0.7641788

 Al 
  0.7505532  0.2432479  0.4948270

 Al 
  0.5132147  0.4821927  0.4883298

 Al 
  0.5012685  0.7230434  0.7631701

 Al 
  0.7531805  0.5044701  0.7364165

 Al 
  0.7462477  0.7660537  0.4996782

