32 
charge = 0 
 Al 
  0.0130847  0.9773662  0.0159683

 Al 
  0.9769294  0.2498391  0.2321482

 Al 
  0.2562287  0.9952676  0.2659435

 Al 
  0.2580404  0.2655970  0.9968479

 Al 
  0.4930560  0.0112111  0.0281446

 Al 
  0.5056755  0.2399720  0.2488404

 Al 
  0.7552621  0.9966969  0.2698951

 Al 
  0.7512660  0.2482897  0.9978652

 Al 
  0.9940300  0.4956995  0.9902926

 Al 
  0.0095020  0.7422095  0.2542671

 Al 
  0.2587879  0.4931501  0.2445114

 Al 
  0.2612569  0.7625278  0.9982315

 Al 
  0.0068759  0.0036793  0.5020420

 Al 
  0.9843584  0.2674942  0.7317534

 Al 
  0.2509603  0.0038463  0.7440164

 Al 
  0.2571222  0.2670858  0.4755297

 Al 
  0.9996337  0.4985149  0.4767004

 Al 
  0.9952799  0.7349760  0.7373843

 Al 
  0.2503663  0.5041174  0.7419101

 Al 
  0.2407146  0.7390426  0.4915165

 Al 
  0.5034726  0.4871591  0.0083449

 Al 
  0.4919843  0.7600045  0.2760544

 Al 
  0.7318821  0.4945300  0.2344612

 Al 
  0.7511670  0.7543921  0.0142431

 Al 
  0.4962514  0.9997352  0.5178593

 Al 
  0.4799280  0.2745471  0.7584340

 Al 
  0.7626726  0.0146144  0.7645711

 Al 
  0.7508514  0.2429880  0.4947478

 Al 
  0.5132531  0.4821321  0.4894275

 Al 
  0.5007982  0.7224345  0.7631701

 Al 
  0.7531088  0.5045691  0.7358856

 Al 
  0.7461957  0.7663111  0.4989889

