32 
charge = 0 
 Al 
  0.0145191  0.9803178  0.0150710

 Al 
  0.9768749  0.2514517  0.2345107

 Al 
  0.2587817  0.9942924  0.2655005

 Al 
  0.2597037  0.2633360  0.9972675

 Al 
  0.4964903  0.0136676  0.0281335

 Al 
  0.5072546  0.2375563  0.2474036

 Al 
  0.7503700  0.9936030  0.2681687

 Al 
  0.7500359  0.2478231  0.9987884

 Al 
  0.9953257  0.4955163  0.9895277

 Al 
  0.0056730  0.7411180  0.2548834

 Al 
  0.2571791  0.4909039  0.2452391

 Al 
  0.2649003  0.7633756  0.9977526

 Al 
  0.0074724  0.0048413  0.5013762

 Al 
  0.9834526  0.2696166  0.7322261

 Al 
  0.2503379  0.0042844  0.7432887

 Al 
  0.2559997  0.2666799  0.4756151

 Al 
  0.0012636  0.5004529  0.4738652

 Al 
  0.9951401  0.7336097  0.7386132

 Al 
  0.2510433  0.5041508  0.7404213

 Al 
  0.2415524  0.7366083  0.4916514

 Al 
  0.5037783  0.4878447  0.0067497

 Al 
  0.4897790  0.7601988  0.2774454

 Al 
  0.7310727  0.4962675  0.2363819

 Al 
  0.7520704  0.7548723  0.0153940

 Al 
  0.4942416  0.0031657  0.5169781

 Al 
  0.4810591  0.2718764  0.7599550

 Al 
  0.7618794  0.0163705  0.7663593

 Al 
  0.7522313  0.2418717  0.4944075

 Al 
  0.5132283  0.4822336  0.4948493

 Al 
  0.4986387  0.7199619  0.7629090

 Al 
  0.7526063  0.5049713  0.7334068

 Al 
  0.7460485  0.7671588  0.4958579

