32 
charge = 0 
 Al 
  0.0136949  0.9784751  0.0156378

 Al 
  0.9768081  0.2504814  0.2330491

 Al 
  0.2573140  0.9948319  0.2657839

 Al 
  0.2588201  0.2647468  0.9969940

 Al 
  0.4943988  0.0122816  0.0282622

 Al 
  0.5063252  0.2389436  0.2481969

 Al 
  0.7532932  0.9954359  0.2692787

 Al 
  0.7507846  0.2480917  0.9982649

 Al 
  0.9945263  0.4956042  0.9899621

 Al 
  0.0079971  0.7417603  0.2545604

 Al 
  0.2581493  0.4921823  0.2448505

 Al 
  0.2627358  0.7629523  0.9980088

 Al 
  0.0071234  0.0041483  0.5017809

 Al 
  0.9838857  0.2683865  0.7319167

 Al 
  0.2507190  0.0040134  0.7436761

 Al 
  0.2567224  0.2669868  0.4754777

 Al 
  0.0003379  0.4993503  0.4755297

 Al 
  0.9952119  0.7343560  0.7378583

 Al 
  0.2507017  0.5041458  0.7413061

 Al 
  0.2410066  0.7380377  0.4915116

 Al 
  0.5036124  0.4873546  0.0077137

 Al 
  0.4910512  0.7601517  0.2766967

 Al 
  0.7314539  0.4951970  0.2351567

 Al 
  0.7515655  0.7545938  0.0147369

 Al 
  0.4954062  0.0011002  0.5174843

 Al 
  0.4802918  0.2735743  0.7591208

 Al 
  0.7624078  0.0153965  0.7653223

 Al 
  0.7514257  0.2425066  0.4946030

 Al 
  0.5132877  0.4820937  0.4916130

 Al 
  0.4998936  0.7213319  0.7631194

 Al 
  0.7529367  0.5047485  0.7348584

 Al 
  0.7461141  0.7667380  0.4976697

