32 
charge = 0 
 Al 
  0.0169831  0.9890389  0.0124128

 Al 
  0.9794317  0.2549230  0.2408792

 Al 
  0.2624214  0.9934149  0.2638570

 Al 
  0.2601517  0.2566111  0.9989072

 Al 
  0.5049403  0.0161997  0.0241461

 Al 
  0.5100775  0.2347087  0.2467341

 Al 
  0.7400327  0.9876739  0.2622568

 Al 
  0.7473751  0.2475595  0.0002673

 Al 
  0.9988639  0.4956438  0.9886825

 Al 
  0.9966004  0.7395092  0.2546248

 Al 
  0.2537808  0.4877815  0.2452527

 Al 
  0.2723392  0.7630909  0.9978565

 Al 
  0.0085008  0.0072732  0.4995953

 Al 
  0.9846208  0.2731300  0.7339884

 Al 
  0.2487389  0.0054750  0.7430263

 Al 
  0.2522338  0.2638001  0.4783315

 Al 
  0.0031917  0.5028786  0.4689991

 Al 
  0.9951747  0.7327323  0.7418086

 Al 
  0.2507240  0.5033204  0.7374264

 Al 
  0.2445547  0.7322534  0.4935709

 Al 
  0.5040159  0.4914979  0.0032177

 Al 
  0.4862816  0.7582793  0.2781026

 Al 
  0.7318709  0.5008143  0.2428865

 Al 
  0.7529961  0.7556049  0.0167021

 Al 
  0.4910400  0.0110341  0.5156502

 Al 
  0.4861331  0.2630093  0.7612012

 Al 
  0.7585454  0.0179484  0.7691030

 Al 
  0.7545678  0.2403284  0.4938109

 Al 
  0.5117036  0.4845032  0.5061346

 Al 
  0.4951797  0.7179917  0.7604673

 Al 
  0.7506881  0.5054428  0.7289478

 Al 
  0.7462415  0.7665252  0.4911490

