32 
charge = 0 
 Al 
  0.0165747  0.9872024  0.0129598

 Al 
  0.9787102  0.2543154  0.2396131

 Al 
  0.2619697  0.9934483  0.2642419

 Al 
  0.2603819  0.2580318  0.9985298

 Al 
  0.5033167  0.0160636  0.0253193

 Al 
  0.5096456  0.2349141  0.2465621

 Al 
  0.7418643  0.9886478  0.2635402

 Al 
  0.7478169  0.2474803  0.0000210

 Al 
  0.9981449  0.4955745  0.9887369

 Al 
  0.9983070  0.7396787  0.2548624

 Al 
  0.2543624  0.4881838  0.2454297

 Al 
  0.2710373  0.7633360  0.9976981

 Al 
  0.0083486  0.0068437  0.4999678

 Al 
  0.9840862  0.2726078  0.7335961

 Al 
  0.2490595  0.0052386  0.7429447

 Al 
  0.2530407  0.2645414  0.4775741

 Al 
  0.0030221  0.5026286  0.4697107

 Al 
  0.9951364  0.7326716  0.7411774

 Al 
  0.2509603  0.5036100  0.7379362

 Al 
  0.2438988  0.7329328  0.4930622

 Al 
  0.5040072  0.4906304  0.0038488

 Al 
  0.4867903  0.7589030  0.2782239

 Al 
  0.7315071  0.4999208  0.2414571

 Al 
  0.7529355  0.7555109  0.0166180

 Al 
  0.4914942  0.0095602  0.5158383

 Al 
  0.4849413  0.2649473  0.7611653

 Al 
  0.7593213  0.0178914  0.7687429

 Al 
  0.7542201  0.2405289  0.4939100

 Al 
  0.5121541  0.4839030  0.5041632

 Al 
  0.4956648  0.7179731  0.7611319

 Al 
  0.7511126  0.5053933  0.7296582

 Al 
  0.7461660  0.7668903  0.4917591

