32 
charge = 0 
 Al 
  0.0161539  0.9854822  0.0134783

 Al 
  0.9781001  0.2536929  0.2383904

 Al 
  0.2614227  0.9935374  0.2645847

 Al 
  0.2604772  0.2593609  0.9981882

 Al 
  0.5017276  0.0157764  0.0262846

 Al 
  0.5091728  0.2352718  0.2465274

 Al 
  0.7437206  0.9896725  0.2647344

 Al 
  0.7482860  0.2474692  0.9997723

 Al 
  0.9974593  0.4955250  0.9888384

 Al 
  0.9999926  0.7399114  0.2550097

 Al 
  0.2549639  0.4886565  0.2455237

 Al 
  0.2697131  0.7634993  0.9976066

 Al 
  0.0081791  0.0064069  0.5003156

 Al 
  0.9836951  0.2720311  0.7332347

 Al 
  0.2493639  0.0050097  0.7429199

 Al 
  0.2537956  0.2651837  0.4769355

 Al 
  0.0027697  0.5022932  0.4705089

 Al 
  0.9951116  0.7327100  0.7405685

 Al 
  0.2511188  0.5038278  0.7384634

 Al 
  0.2432899  0.7336667  0.4926241

 Al 
  0.5039850  0.4898483  0.0044874

 Al 
  0.4873546  0.7593956  0.2782375

 Al 
  0.7312311  0.4990545  0.2401391

 Al 
  0.7528266  0.7553970  0.0164583

 Al 
  0.4920078  0.0081048  0.5160487

 Al 
  0.4838721  0.2667380  0.7610502

 Al 
  0.7600205  0.0177318  0.7683159

 Al 
  0.7538352  0.2407628  0.4940127

 Al 
  0.5125217  0.4833808  0.5021496

 Al 
  0.4962180  0.7181291  0.7616913

 Al 
  0.7515061  0.5053277  0.7304156

 Al 
  0.7461054  0.7671452  0.4924855

