32 
charge = 0 
 Al 
  0.0171811  0.9900017  0.0121306

 Al 
  0.9798339  0.2552200  0.2415264

 Al 
  0.2626108  0.9934199  0.2636478

 Al 
  0.2599871  0.2558673  0.9991090

 Al 
  0.5057633  0.0162108  0.0234803

 Al 
  0.5102755  0.2346654  0.2468727

 Al 
  0.7391280  0.9872061  0.2615836

 Al 
  0.7471672  0.2476288  0.0003911

 Al 
  0.9992364  0.4956859  0.9886763

 Al 
  0.9957428  0.7394523  0.2544701

 Al 
  0.2534986  0.4876058  0.2451327

 Al 
  0.2729803  0.7629387  0.9979617

 Al 
  0.0085689  0.0074835  0.4994010

 Al 
  0.9849426  0.2733689  0.7341976

 Al 
  0.2485731  0.0055963  0.7430882

 Al 
  0.2518118  0.2633917  0.4787535

 Al 
  0.0032449  0.5029714  0.4686798

 Al 
  0.9951995  0.7328004  0.7421316

 Al 
  0.2505767  0.5031459  0.7371813

 Al 
  0.2448988  0.7319353  0.4938493

 Al 
  0.5040159  0.4919620  0.0029058

 Al 
  0.4860490  0.7579179  0.2780023

 Al 
  0.7320826  0.5012697  0.2436426

 Al 
  0.7530073  0.7556445  0.0167120

 Al 
  0.4908371  0.0117779  0.5155623

 Al 
  0.4867729  0.2619870  0.7611900

 Al 
  0.7581295  0.0179372  0.7692552

 Al 
  0.7547263  0.2402393  0.4937639

 Al 
  0.5114450  0.4848312  0.5071011

 Al 
  0.4949631  0.7180697  0.7600948

 Al 
  0.7504666  0.5054626  0.7286124

 Al 
  0.7462824  0.7663036  0.4908903

