32 
charge = 0 
 Al 
  0.0184323  0.9973900  0.0100007

 Al 
  0.9833313  0.2570751  0.2461512

 Al 
  0.2632333  0.9938518  0.2618856

 Al 
  0.2580590  0.2501658  0.0007388

 Al 
  0.5115093  0.0151960  0.0174521

 Al 
  0.5112606  0.2355515  0.2487686

 Al 
  0.7331989  0.9844240  0.2564960

 Al 
  0.7460695  0.2487587  0.0012908

 Al 
  0.0020333  0.4961017  0.9890500

 Al 
  0.9898644  0.7396255  0.2527375

 Al 
  0.2517821  0.4868385  0.2437256

 Al 
  0.2771237  0.7613781  0.9991807

 Al 
  0.0088585  0.0088213  0.4979110

 Al 
  0.9881058  0.2745347  0.7358534

 Al 
  0.2472910  0.0064527  0.7438741

 Al 
  0.2486238  0.2599426  0.4824415

 Al 
  0.0030011  0.5030617  0.4672887

 Al 
  0.9954643  0.7339983  0.7444755

 Al 
  0.2490731  0.5013341  0.7357420

 Al 
  0.2475051  0.7302213  0.4961994

 Al 
  0.5039590  0.4956166  0.0008626

 Al 
  0.4848584  0.7544775  0.2765680

 Al 
  0.7339872  0.5044787  0.2495372

 Al 
  0.7527189  0.7557138  0.0161143

 Al 
  0.4899188  0.0169162  0.5150277

 Al 
  0.4919806  0.2540642  0.7606492

 Al 
  0.7548005  0.0171291  0.7697082

 Al 
  0.7554973  0.2398384  0.4935152

 Al 
  0.5090293  0.4875080  0.5132518

 Al 
  0.4940052  0.7199582  0.7567620

 Al 
  0.7488157  0.5054737  0.7267078

 Al 
  0.7466128  0.7640983  0.4900339

