32 
charge = 0 
 Al 
  0.0187157  0.9996139  0.0093671

 Al 
  0.9844958  0.2574947  0.2474172

 Al 
  0.2631912  0.9940968  0.2613039

 Al 
  0.2573239  0.2484642  0.0012487

 Al 
  0.5130427  0.0145859  0.0153829

 Al 
  0.5113843  0.2361715  0.2495557

 Al 
  0.7317187  0.9838275  0.2550220

 Al 
  0.7459037  0.2493033  0.0015593

 Al 
  0.0028563  0.4962551  0.9892988

 Al 
  0.9883248  0.7398730  0.2520531

 Al 
  0.2513984  0.4867618  0.2431674

 Al 
  0.2781310  0.7608039  0.9996646

 Al 
  0.0088659  0.0091245  0.4974717

 Al 
  0.9892456  0.2746720  0.7363682

 Al 
  0.2468937  0.0066804  0.7441934

 Al 
  0.2476907  0.2588275  0.4836741

 Al 
  0.0027462  0.5029318  0.4672120

 Al 
  0.9955621  0.7345602  0.7451364

 Al 
  0.2485298  0.5006336  0.7354624

 Al 
  0.2482625  0.7299292  0.4969568

 Al 
  0.5039317  0.4967143  0.0003478

 Al 
  0.4846765  0.7532437  0.2759480

 Al 
  0.7346084  0.5053487  0.2513230

 Al 
  0.7525234  0.7556507  0.0157109

 Al 
  0.4898371  0.0182763  0.5148829

 Al 
  0.4936228  0.2516893  0.7603794

 Al 
  0.7537795  0.0166749  0.7696154

 Al 
  0.7555913  0.2397913  0.4934842

 Al 
  0.5081630  0.4883310  0.5147060

 Al 
  0.4939236  0.7209247  0.7556185

 Al 
  0.7483578  0.5054317  0.7263477

 Al 
  0.7467019  0.7633125  0.4901181

