32 
charge = 0 
 Al 
  0.0188382  0.0007203  0.0090503

 Al 
  0.9850936  0.2576778  0.2480249

 Al 
  0.2631367  0.9942367  0.2610056

 Al 
  0.2569415  0.2476214  0.0015049

 Al 
  0.5137716  0.0142369  0.0143149

 Al 
  0.5114165  0.2365353  0.2499765

 Al 
  0.7310294  0.9835689  0.2543018

 Al 
  0.7458492  0.2496102  0.0016955

 Al 
  0.0032635  0.4963381  0.9894461

 Al 
  0.9875971  0.7400290  0.2516868

 Al 
  0.2512301  0.4867469  0.2428704

 Al 
  0.2785926  0.7605020  0.9999233

 Al 
  0.0088560  0.0092582  0.4972551

 Al 
  0.9898384  0.2747030  0.7366294

 Al 
  0.2466932  0.0067856  0.7443641

 Al 
  0.2472316  0.2582620  0.4843077

 Al 
  0.0025915  0.5028489  0.4672343

 Al 
  0.9956141  0.7348720  0.7454581

 Al 
  0.2482476  0.5002587  0.7353510

 Al 
  0.2486325  0.7298203  0.4973405

 Al 
  0.5039194  0.4972563  0.0001064

 Al 
  0.4846134  0.7525976  0.2756101

 Al 
  0.7349203  0.5057658  0.2522115

 Al 
  0.7524083  0.7556024  0.0154695

 Al 
  0.4898297  0.0189199  0.5148099

 Al 
  0.4944520  0.2505148  0.7602322

 Al 
  0.7532721  0.0164138  0.7695300

 Al 
  0.7556148  0.2397790  0.4934780

 Al 
  0.5077075  0.4887407  0.5153656

 Al 
  0.4939161  0.7214729  0.7550270

 Al 
  0.7481399  0.5054032  0.7262041

 Al 
  0.7467415  0.7629053  0.4902146

