32 
charge = 0 
 Al 
  0.0190424  0.0029033  0.0084253

 Al 
  0.9863039  0.2579897  0.2491758

 Al 
  0.2629697  0.9945485  0.2603968

 Al 
  0.2561643  0.2459680  0.0020160

 Al 
  0.5151342  0.0134622  0.0121393

 Al 
  0.5114227  0.2373546  0.2508564

 Al 
  0.7297634  0.9831345  0.2529157

 Al 
  0.7457985  0.2502896  0.0019677

 Al 
  0.0040592  0.4965101  0.9897827

 Al 
  0.9862420  0.7404002  0.2509158

 Al 
  0.2509381  0.4867593  0.2422516

 Al 
  0.2794230  0.7598770  0.0004641

 Al 
  0.0088028  0.0094822  0.4968331

 Al 
  0.9910537  0.2746894  0.7371504

 Al 
  0.2462898  0.0069799  0.7447218

 Al 
  0.2463393  0.2571308  0.4855935

 Al 
  0.0022350  0.5026533  0.4673952

 Al 
  0.9957205  0.7355539  0.7460769

 Al 
  0.2476783  0.4994678  0.7351901

 Al 
  0.2493478  0.7296792  0.4981102

 Al 
  0.5038921  0.4983132  0.9996572

 Al 
  0.4845453  0.7512586  0.2748886

 Al 
  0.7355354  0.5065541  0.2539590

 Al 
  0.7521509  0.7554725  0.0149139

 Al 
  0.4898755  0.0201166  0.5146577

 Al 
  0.4961042  0.2482191  0.7599178

 Al 
  0.7522821  0.0158321  0.7692812

 Al 
  0.7556198  0.2397753  0.4934867

 Al 
  0.5067608  0.4895389  0.5165351

 Al 
  0.4939595  0.7226858  0.7538191

 Al 
  0.7477340  0.5053277  0.7259950

 Al 
  0.7468133  0.7620774  0.4905116

