32 
charge = 0 
 Al 
  0.0192243  0.0060306  0.0075157

 Al 
  0.9881169  0.2583040  0.2507042

 Al 
  0.2625910  0.9950770  0.2594760

 Al 
  0.2550146  0.2436266  0.0027573

 Al 
  0.5168940  0.0121529  0.0088597

 Al 
  0.5112878  0.2387753  0.2522165

 Al 
  0.7281682  0.9826964  0.2510210

 Al 
  0.7458690  0.2514467  0.0023774

 Al 
  0.0051804  0.4967922  0.9903755

 Al 
  0.9844958  0.7410920  0.2496943

 Al 
  0.2506213  0.4868806  0.2412888

 Al 
  0.2804131  0.7589104  0.0013081

 Al 
  0.0086419  0.0097013  0.4962440

 Al 
  0.9928939  0.2744740  0.7379226

 Al 
  0.2456933  0.0072125  0.7452849

 Al 
  0.2450943  0.2554737  0.4875278

 Al 
  0.0016101  0.5023217  0.4679273

 Al 
  0.9958814  0.7366950  0.7469346

 Al 
  0.2468343  0.4982092  0.7351121

 Al 
  0.2503317  0.7296557  0.4992377

 Al 
  0.5038575  0.4997921  0.9990731

 Al 
  0.4845787  0.7491820  0.2737204

 Al 
  0.7364103  0.5075986  0.2564502

 Al 
  0.7517054  0.7551854  0.0139077

 Al 
  0.4900933  0.0216462  0.5144089

 Al 
  0.4985100  0.2450002  0.7594240

 Al 
  0.7509009  0.0148272  0.7687194

 Al 
  0.7555257  0.2398173  0.4935535

 Al 
  0.5052819  0.4906527  0.5178964

 Al 
  0.4941649  0.7247624  0.7519888

 Al 
  0.7472229  0.5051693  0.7258787

 Al 
  0.7468925  0.7608373  0.4911935

