32 
charge = 0 
 Al 
  0.0192391  0.0089092  0.0066544

 Al 
  0.9898805  0.2584278  0.2519702

 Al 
  0.2620922  0.9956537  0.2585639

 Al 
  0.2539528  0.2415116  0.0034478

 Al 
  0.5182701  0.0107247  0.0056656

 Al 
  0.5109970  0.2403656  0.2535592

 Al 
  0.7269442  0.9825095  0.2493961

 Al 
  0.7460992  0.2527350  0.0027870

 Al 
  0.0061928  0.4971016  0.9910549

 Al 
  0.9831234  0.7419224  0.2484419

 Al 
  0.2504455  0.4871108  0.2403260

 Al 
  0.2810839  0.7579402  0.0021583

 Al 
  0.0083820  0.0097706  0.4957168

 Al 
  0.9946834  0.2740347  0.7386714

 Al 
  0.2451228  0.0073660  0.7458579

 Al 
  0.2439916  0.2539132  0.4894213

 Al 
  0.0009108  0.5019851  0.4687812

 Al 
  0.9960373  0.7379474  0.7476919

 Al 
  0.2460485  0.4969086  0.7352322

 Al 
  0.2511806  0.7298488  0.5003007

 Al 
  0.5038327  0.5011002  0.9985954

 Al 
  0.4847656  0.7470831  0.2724902

 Al 
  0.7371912  0.5084550  0.2587211

 Al 
  0.7512116  0.7547881  0.0127184

 Al 
  0.4904708  0.0228169  0.5141231

 Al 
  0.5007661  0.2421477  0.7589253

 Al 
  0.7497067  0.0136949  0.7679484

 Al 
  0.7553228  0.2399139  0.4936872

 Al 
  0.5037696  0.4916267  0.5187837

 Al 
  0.4945077  0.7270828  0.7501931

 Al 
  0.7468467  0.5049564  0.7259975

 Al 
  0.7469333  0.7596480  0.4921192

