32 
charge = 0 
 Al 
  0.0192540  0.0079810  0.0069353

 Al 
  0.9893013  0.2584080  0.2515779

 Al 
  0.2622692  0.9954581  0.2588659

 Al 
  0.2542931  0.2421885  0.0032239

 Al 
  0.5178556  0.0112111  0.0067150

 Al 
  0.5111096  0.2398198  0.2531174

 Al 
  0.7273105  0.9825454  0.2499059

 Al 
  0.7460064  0.2522932  0.0026509

 Al 
  0.0058685  0.4969952  0.9908198

 Al 
  0.9835379  0.7416316  0.2488602

 Al 
  0.2504888  0.4870229  0.2406440

 Al 
  0.2808957  0.7582620  0.0018761

 Al 
  0.0084798  0.0097644  0.4958851

 Al 
  0.9940956  0.2742055  0.7384251

 Al 
  0.2453096  0.0073239  0.7456673

 Al 
  0.2443419  0.2544193  0.4887976

 Al 
  0.0011497  0.5020952  0.4684632

 Al 
  0.9959853  0.7375192  0.7474506

 Al 
  0.2463022  0.4973442  0.7351703

 Al 
  0.2509133  0.7297609  0.4999554

 Al 
  0.5038389  0.5006844  0.9987426

 Al 
  0.4846876  0.7477823  0.2729048

 Al 
  0.7369425  0.5081914  0.2579909

 Al 
  0.7513799  0.7549329  0.0131343

 Al 
  0.4903284  0.0224679  0.5142233

 Al 
  0.5000347  0.2430536  0.7590911

 Al 
  0.7500804  0.0140847  0.7682281

 Al 
  0.7554007  0.2398767  0.4936352

 Al 
  0.5042745  0.4913197  0.5185399

 Al 
  0.4943802  0.7262858  0.7507846

 Al 
  0.7469568  0.5050332  0.7259331

 Al 
  0.7469234  0.7600354  0.4917875

