32 
charge = 0 
 Al 
  0.0189483  0.0018192  0.0087360

 Al 
  0.9856963  0.2578437  0.2486127

 Al 
  0.2630625  0.9943877  0.2607024

 Al 
  0.2565541  0.2467873  0.0017611

 Al 
  0.5144696  0.0138607  0.0132320

 Al 
  0.5114301  0.2369301  0.2504109

 Al 
  0.7303772  0.9833375  0.2535988

 Al 
  0.7458133  0.2499394  0.0018316

 Al 
  0.0036644  0.4964222  0.9896082

 Al 
  0.9869029  0.7402047  0.2513069

 Al 
  0.2510754  0.4867457  0.2425647

 Al 
  0.2790233  0.7601913  0.0001893

 Al 
  0.0088350  0.0093770  0.4970410

 Al 
  0.9904423  0.2747092  0.7368905

 Al 
  0.2464915  0.0068858  0.7445411

 Al 
  0.2467799  0.2576952  0.4849488

 Al 
  0.0024207  0.5027548  0.4672949

 Al 
  0.9956673  0.7352037  0.7457712

 Al 
  0.2479642  0.4998701  0.7352606

 Al 
  0.2489951  0.7297374  0.4977254

 Al 
  0.5039057  0.4977897  0.9998762

 Al 
  0.4845701  0.7519343  0.2752562

 Al 
  0.7352297  0.5061680  0.2530914

 Al 
  0.7522845  0.7555430  0.0152047

 Al 
  0.4898421  0.0195337  0.5147357

 Al 
  0.4952799  0.2493552  0.7600775

 Al 
  0.7527721  0.0161329  0.7694174

 Al 
  0.7556247  0.2397740  0.4934780

 Al 
  0.5072397  0.4891441  0.5159757

 Al 
  0.4939285  0.7220608  0.7544255

 Al 
  0.7479308  0.5053685  0.7260866

 Al 
  0.7467799  0.7624932  0.4903458

