32 
charge = 0 
 Al 
  0.0185214  0.0145129  0.0048203

 Al 
  0.9936810  0.2580244  0.2539206

 Al 
  0.2606269  0.9970521  0.2565306

 Al 
  0.2520927  0.2375934  0.0048277

 Al 
  0.5199631  0.0071630  0.9988577

 Al 
  0.5098225  0.2444867  0.2563611

 Al 
  0.7253948  0.9829637  0.2467031

 Al 
  0.7471561  0.2560839  0.0037659

 Al 
  0.0080825  0.4979308  0.9928729

 Al 
  0.9813450  0.7443035  0.2455596

 Al 
  0.2504876  0.4879932  0.2382493

 Al 
  0.2814477  0.7557534  0.0040233

 Al 
  0.0073944  0.0093386  0.4947416

 Al 
  0.9984221  0.2721734  0.7403284

 Al 
  0.2439372  0.0073722  0.7471425

 Al 
  0.2420251  0.2507562  0.4935634

 Al 
  0.9991721  0.5013663  0.4718677

 Al 
  0.9963628  0.7411923  0.7490892

 Al 
  0.2445993  0.4938963  0.7362569

 Al 
  0.2525791  0.7310641  0.5024429

 Al 
  0.5038402  0.5034144  0.9978207

 Al 
  0.4857086  0.7423011  0.2695151

 Al 
  0.7385773  0.5096963  0.2630365

 Al 
  0.7499616  0.7534256  0.0093473

 Al 
  0.4918395  0.0240842  0.5132308

 Al 
  0.5052832  0.2371454  0.7578301

 Al 
  0.7478392  0.0106468  0.7654039

 Al 
  0.7545282  0.2403235  0.4942490

 Al 
  0.5002401  0.4932454  0.5192132

 Al 
  0.4956982  0.7332137  0.7463096

 Al 
  0.7464841  0.5042535  0.7271199

 Al 
  0.7468888  0.7572298  0.4949965

