32 
charge = 0 
 Al 
  0.0186946  0.0138050  0.0050703

 Al 
  0.9931649  0.2581370  0.2537201

 Al 
  0.2608559  0.9968529  0.2568128

 Al 
  0.2522957  0.2380662  0.0046508

 Al 
  0.5198456  0.0076853  0.9997698

 Al 
  0.5100280  0.2438691  0.2559972

 Al 
  0.7255161  0.9828288  0.2470001

 Al 
  0.7469667  0.2555826  0.0036211

 Al 
  0.0078511  0.4978021  0.9925957

 Al 
  0.9814836  0.7439285  0.2459631

 Al 
  0.2504492  0.4878409  0.2385253

 Al 
  0.2814935  0.7560579  0.0037709

 Al 
  0.0075689  0.0094513  0.4948604

 Al 
  0.9979308  0.2725100  0.7400958

 Al 
  0.2440931  0.0074019  0.7469655

 Al 
  0.2422553  0.2511658  0.4929942

 Al 
  0.9994221  0.5014331  0.4713405

 Al 
  0.9963183  0.7407022  0.7489171

 Al 
  0.2447688  0.4943184  0.7360477

 Al 
  0.2524293  0.7308289  0.5021657

 Al 
  0.5038315  0.5031459  0.9979098

 Al 
  0.4855341  0.7429706  0.2699458

 Al 
  0.7384164  0.5095824  0.2625019

 Al 
  0.7501460  0.7536582  0.0098782

 Al 
  0.4916081  0.0240260  0.5133830

 Al 
  0.5047015  0.2377172  0.7579786

 Al 
  0.7480211  0.0111145  0.7658297

 Al 
  0.7546644  0.2402505  0.4941476

 Al 
  0.5007425  0.4930697  0.5192763

 Al 
  0.4955002  0.7322831  0.7468356

 Al 
  0.7464965  0.5043723  0.7268910

 Al 
  0.7469073  0.7575417  0.4945337

