32 
charge = 0 
 Al 
  0.0175660  0.0170647  0.0038315

 Al 
  0.9956809  0.2574006  0.2545023

 Al 
  0.2596629  0.9978380  0.2554218

 Al 
  0.2515086  0.2359846  0.0054775

 Al 
  0.5200411  0.0050307  0.9953963

 Al 
  0.5088857  0.2470472  0.2576853

 Al 
  0.7251869  0.9837347  0.2457675

 Al 
  0.7480211  0.2581580  0.0043636

 Al 
  0.0089055  0.4984865  0.9940300

 Al 
  0.9811383  0.7459259  0.2439755

 Al 
  0.2507215  0.4886800  0.2372209

 Al 
  0.2809428  0.7545567  0.0049701

 Al 
  0.0065851  0.0087199  0.4943270

 Al 
  0.0002488  0.2705807  0.7412665

 Al 
  0.2433506  0.0071469  0.7478256

 Al 
  0.2412579  0.2492315  0.4957935

 Al 
  0.9981857  0.5011843  0.4742661

 Al 
  0.9965410  0.7432466  0.7497067

 Al 
  0.2440609  0.4922417  0.7372952

 Al 
  0.2530122  0.7322039  0.5034627

 Al 
  0.5039033  0.5042943  0.9975100

 Al 
  0.4865353  0.7396688  0.2677664

 Al 
  0.7391119  0.5099550  0.2649213

 Al 
  0.7492030  0.7523625  0.0070578

 Al 
  0.4928692  0.0239134  0.5125241

 Al 
  0.5074192  0.2353250  0.7572595

 Al 
  0.7473949  0.0086481  0.7634845

 Al 
  0.7539181  0.2406626  0.4947267

 Al 
  0.4982328  0.4937652  0.5186068

 Al 
  0.4965744  0.7371281  0.7442886

 Al 
  0.7465472  0.5037176  0.7282622

 Al 
  0.7467823  0.7560975  0.4970088

