32 
charge = 0 
 Al 
  0.0172578  0.0176365  0.0035852

 Al 
  0.9961673  0.2572039  0.2545975

 Al 
  0.2594104  0.9980310  0.2551495

 Al 
  0.2514232  0.2356517  0.0056247

 Al 
  0.5199681  0.0044849  0.9945745

 Al 
  0.5086233  0.2477105  0.2579823

 Al 
  0.7252005  0.9839835  0.2455906

 Al 
  0.7482625  0.2586914  0.0045196

 Al 
  0.0090874  0.4986362  0.9943320

 Al 
  0.9811717  0.7463628  0.2435857

 Al 
  0.2507982  0.4888718  0.2369846

 Al 
  0.2807361  0.7542609  0.0051903

 Al 
  0.0063536  0.0085219  0.4942379

 Al 
  0.0006732  0.2701203  0.7415054

 Al 
  0.2432144  0.0070640  0.7479902

 Al 
  0.2411032  0.2488763  0.4963430

 Al 
  0.9979456  0.5011621  0.4749369

 Al 
  0.9965893  0.7437862  0.7498453

 Al 
  0.2439619  0.4918370  0.7376083

 Al 
  0.2530778  0.7325380  0.5036966

 Al 
  0.5039280  0.5044664  0.9974382

 Al 
  0.4867754  0.7390203  0.2673209

 Al 
  0.7392208  0.5099710  0.2653334

 Al 
  0.7490062  0.7520630  0.0064415

 Al 
  0.4931526  0.0237711  0.5123175

 Al 
  0.5079105  0.2349847  0.7571222

 Al 
  0.7473566  0.0081147  0.7629486

 Al 
  0.7537498  0.2407604  0.4948641

 Al 
  0.4977291  0.4938518  0.5183741

 Al 
  0.4968158  0.7381578  0.7438023

 Al 
  0.7465868  0.5035667  0.7286038

 Al 
  0.7467464  0.7558413  0.4975496

