32 
charge = 0 
 Al 
  0.0189669  0.0123001  0.0055814

 Al 
  0.9921068  0.2583102  0.2532449

 Al 
  0.2612952  0.9964519  0.2573845

 Al 
  0.2527684  0.2390971  0.0042770

 Al 
  0.5194904  0.0087174  0.0016534

 Al 
  0.5104030  0.2426625  0.2552312

 Al 
  0.7258539  0.9826259  0.2476783

 Al 
  0.7466252  0.2546013  0.0033389

 Al 
  0.0073499  0.4975558  0.9920586

 Al 
  0.9818734  0.7432120  0.2467799

 Al 
  0.2504022  0.4875613  0.2391008

 Al 
  0.2814898  0.7566742  0.0032523

 Al 
  0.0078833  0.0096245  0.4951178

 Al 
  0.9969049  0.2731127  0.7396292

 Al 
  0.2444186  0.0074303  0.7466041

 Al 
  0.2427652  0.2520247  0.4918346

 Al 
  0.9999233  0.5015915  0.4703690

 Al 
  0.9962291  0.7397493  0.7485483

 Al 
  0.2451463  0.4951735  0.7356938

 Al 
  0.2520803  0.7304193  0.5015841

 Al 
  0.5038228  0.5025481  0.9981053

 Al 
  0.4852235  0.7443233  0.2708022

 Al 
  0.7380588  0.5092929  0.2613546

 Al 
  0.7505099  0.7540852  0.0108905

 Al 
  0.4911799  0.0237884  0.5136590

 Al 
  0.5034763  0.2390005  0.7582842

 Al 
  0.7484716  0.0120192  0.7666192

 Al 
  0.7549156  0.2401181  0.4939656

 Al 
  0.5017487  0.4926650  0.5192862

 Al 
  0.4951302  0.7304750  0.7479159

 Al 
  0.7465571  0.5045914  0.7265012

 Al 
  0.7469308  0.7581989  0.4936563

