32 
charge = 0 
 Al 
  0.0161465  0.0192057  0.0028365

 Al 
  0.9976053  0.2565170  0.2547782

 Al 
  0.2586246  0.9985966  0.2543401

 Al 
  0.2513168  0.2348139  0.0060294

 Al 
  0.5195312  0.0028142  0.9922034

 Al 
  0.5077669  0.2497587  0.2587929

 Al 
  0.7253824  0.9848683  0.2451809

 Al 
  0.7490409  0.2603299  0.0050059

 Al 
  0.0095812  0.4991139  0.9952663

 Al 
  0.9814663  0.7477538  0.2424335

 Al 
  0.2510569  0.4894906  0.2363361

 Al 
  0.2799193  0.7533810  0.0058029

 Al 
  0.0055876  0.0078251  0.4940028

 Al 
  0.0018687  0.2685771  0.7422442

 Al 
  0.2428259  0.0067447  0.7484691

 Al 
  0.2407257  0.2478652  0.4979828

 Al 
  0.9972464  0.5011546  0.4771311

 Al 
  0.9967477  0.7454693  0.7502351

 Al 
  0.2437503  0.4906527  0.7386775

 Al 
  0.2531743  0.7336617  0.5043575

 Al 
  0.5040196  0.5048748  0.9972254

 Al 
  0.4875749  0.7370984  0.2659646

 Al 
  0.7394980  0.5099067  0.2664398

 Al 
  0.7484048  0.7510792  0.0044787

 Al 
  0.4940572  0.0231065  0.5116219

 Al 
  0.5092879  0.2342285  0.7567212

 Al 
  0.7474110  0.0064328  0.7612024

 Al 
  0.7532139  0.2410796  0.4953245

 Al 
  0.4962118  0.4940176  0.5175016

 Al 
  0.4975868  0.7413692  0.7423828

 Al 
  0.7467539  0.5030766  0.7297708

 Al 
  0.7466153  0.7551346  0.4992599

