32 
charge = 0 
 Al 
  0.0152443  0.0201302  0.0023279

 Al 
  0.9985496  0.2559824  0.2548203

 Al 
  0.2580813  0.9989604  0.2538092

 Al 
  0.2513774  0.2343943  0.0062670

 Al 
  0.5190659  0.0016744  0.9907010

 Al 
  0.5071407  0.2511720  0.2592632

 Al 
  0.7256163  0.9855725  0.2449990

 Al 
  0.7496003  0.2614475  0.0053450

 Al 
  0.0098696  0.4994579  0.9959123

 Al 
  0.9818214  0.7487501  0.2416799

 Al 
  0.2512512  0.4899399  0.2359586

 Al 
  0.2792065  0.7527994  0.0061668

 Al 
  0.0050146  0.0072719  0.4938716

 Al 
  0.0026001  0.2674137  0.7427590

 Al 
  0.2425870  0.0064725  0.7487748

 Al 
  0.2405450  0.2472303  0.4990718

 Al 
  0.9968034  0.5012017  0.4787436

 Al 
  0.9968727  0.7466450  0.7504752

 Al 
  0.2436860  0.4898916  0.7395030

 Al 
  0.2531508  0.7345119  0.5047621

 Al 
  0.5040963  0.5050554  0.9970756

 Al 
  0.4881776  0.7358386  0.2650426

 Al 
  0.7396466  0.5097706  0.2670697

 Al 
  0.7479939  0.7503527  0.0030766

 Al 
  0.4947045  0.0224642  0.5110861

 Al 
  0.5101307  0.2339463  0.7564626

 Al 
  0.7475929  0.0052423  0.7599215

 Al 
  0.7528303  0.2413173  0.4956698

 Al 
  0.4951933  0.4940510  0.5167851

 Al 
  0.4981399  0.7436117  0.7414695

 Al 
  0.7468987  0.5027152  0.7306656

 Al 
  0.7465113  0.7547151  0.5004653

