32 
charge = 0 
 Al 
  0.0117395  0.0222947  0.0007475

 Al 
  0.0012933  0.2540617  0.2546495

 Al 
  0.2563796  0.9999480  0.2522845

 Al 
  0.2522313  0.2338102  0.0067942

 Al 
  0.5169051  0.9981758  0.9866120

 Al 
  0.5050245  0.2555529  0.2603151

 Al 
  0.7267994  0.9882122  0.2448159

 Al 
  0.7514170  0.2648210  0.0064093

 Al 
  0.0105378  0.5006188  0.9979085

 Al 
  0.9836072  0.7520346  0.2395203

 Al 
  0.2518761  0.4914423  0.2351592

 Al 
  0.2762475  0.7510878  0.0069712

 Al 
  0.0030135  0.0052101  0.4935845

 Al 
  0.0044342  0.2633211  0.7444211

 Al 
  0.2420128  0.0053723  0.7496151

 Al 
  0.2403569  0.2455064  0.5022994

 Al 
  0.9956425  0.5016026  0.4842409

 Al 
  0.9973863  0.7503539  0.7511361

 Al 
  0.2438778  0.4878261  0.7424991

 Al 
  0.2526434  0.7374981  0.5058104

 Al 
  0.5043884  0.5051557  0.9965323

 Al 
  0.4903161  0.7322558  0.2622259

 Al 
  0.7399795  0.5089501  0.2684607

 Al 
  0.7467415  0.7478702  0.9984840

 Al 
  0.4967960  0.0196389  0.5091072

 Al 
  0.5122952  0.2341382  0.7557213

 Al 
  0.7488157  0.0014158  0.7555864

 Al 
  0.7515927  0.2421464  0.4968752

 Al 
  0.4921464  0.4938233  0.5141181

 Al 
  0.4999282  0.7506906  0.7389164

 Al 
  0.7474481  0.5014814  0.7338882

 Al 
  0.7461264  0.7536842  0.5042894

