32 
charge = 0 
 Al 
  0.0072410  0.0234679  0.9991634

 Al 
  0.0037758  0.2518700  0.2542139

 Al 
  0.2547052  0.0006856  0.2509653

 Al 
  0.2540221  0.2342087  0.0069799

 Al 
  0.5138855  0.9948183  0.9833585

 Al 
  0.5026929  0.2597990  0.2607915

 Al 
  0.7285345  0.9914484  0.2450126

 Al 
  0.7532610  0.2679236  0.0074650

 Al 
  0.0108856  0.5019244  0.9998379

 Al 
  0.9862668  0.7555406  0.2376318

 Al 
  0.2524170  0.4930758  0.2349995

 Al 
  0.2722043  0.7495149  0.0072298

 Al 
  0.0007227  0.0027078  0.4934397

 Al 
  0.0056012  0.2586246  0.7462007

 Al 
  0.2417492  0.0039231  0.7502995

 Al 
  0.2407096  0.2440721  0.5052943

 Al 
  0.9948406  0.5023464  0.4903705

 Al 
  0.9981734  0.7540122  0.7517400

 Al 
  0.2446414  0.4863051  0.7460881

 Al 
  0.2515272  0.7409151  0.5065578

 Al 
  0.5047164  0.5046235  0.9957873

 Al 
  0.4928296  0.7292894  0.2594896

 Al 
  0.7402876  0.5076172  0.2691055

 Al 
  0.7455757  0.7451277  0.9936538

 Al 
  0.4989010  0.0157641  0.5066309

 Al 
  0.5138557  0.2356901  0.7550480

 Al 
  0.7508799  0.9975769  0.7508675

 Al 
  0.7503379  0.2431179  0.4982439

 Al 
  0.4892976  0.4932305  0.5110353

 Al 
  0.5016905  0.7577051  0.7367890

 Al 
  0.7480719  0.5001139  0.7376912

 Al 
  0.7456995  0.7529590  0.5080182

