32 
charge = 0 
 Al 
  0.0039639  0.0236820  0.9981833

 Al 
  0.0051891  0.2504418  0.2538909

 Al 
  0.2537028  0.0009863  0.2502624

 Al 
  0.2555851  0.2349314  0.0068883

 Al 
  0.5116578  0.9928444  0.9817917

 Al 
  0.5011485  0.2622791  0.2607928

 Al 
  0.7298574  0.9937317  0.2452391

 Al 
  0.7543735  0.2696414  0.0081085

 Al 
  0.0109240  0.5028142  0.0009826

 Al 
  0.9883149  0.7577991  0.2365984

 Al 
  0.2526298  0.4941550  0.2352978

 Al 
  0.2691203  0.7486152  0.0070690

 Al 
  0.9991684  0.0009529  0.4934075

 Al 
  0.0059613  0.2554539  0.7473702

 Al 
  0.2417900  0.0028551  0.7506398

 Al 
  0.2412195  0.2433035  0.5070269

 Al 
  0.9945473  0.5029602  0.4944743

 Al 
  0.9988553  0.7561767  0.7521212

 Al 
  0.2454136  0.4856888  0.7486040

 Al 
  0.2505371  0.7432330  0.5068610

 Al 
  0.5049119  0.5039862  0.9951785

 Al 
  0.4945844  0.7278773  0.2578164

 Al 
  0.7405834  0.5065566  0.2691476

 Al 
  0.7449248  0.7433308  0.9906094

 Al 
  0.5001584  0.0129004  0.5048092

 Al 
  0.5145352  0.2372556  0.7546396

 Al 
  0.7525246  0.9953047  0.7478120

 Al 
  0.7495706  0.2438196  0.4991684

 Al 
  0.4876516  0.4927380  0.5090305

 Al 
  0.5026806  0.7618818  0.7357024

 Al 
  0.7484691  0.4992092  0.7403161

 Al 
  0.7454470  0.7525939  0.5101567

