32 
charge = 0 
 Al 
  0.9918643  0.0209779  0.9954953

 Al 
  0.0087236  0.2464717  0.2530729

 Al 
  0.2511311  0.0007066  0.2486511

 Al 
  0.2622345  0.2396428  0.0051817

 Al 
  0.5035370  0.9879585  0.9805059

 Al 
  0.4961561  0.2677058  0.2588350

 Al 
  0.7351926  0.0019442  0.2457997

 Al 
  0.7572150  0.2730682  0.0100057

 Al 
  0.0096864  0.5056841  0.0041446

 Al 
  0.9962638  0.7646775  0.2343139

 Al 
  0.2516831  0.4978751  0.2391045

 Al 
  0.2564390  0.7465472  0.0044726

 Al 
  0.9940473  0.9946327  0.4936377

 Al 
  0.0048030  0.2452700  0.7511707

 Al 
  0.2433122  0.9986040  0.7510915

 Al 
  0.2445065  0.2417331  0.5115229

 Al 
  0.9950040  0.5052213  0.5084909

 Al 
  0.0024887  0.7614994  0.7535394

 Al 
  0.2494431  0.4859227  0.7575603

 Al 
  0.2460571  0.7513217  0.5066742

 Al 
  0.5051000  0.5004579  0.9923370

 Al 
  0.5010160  0.7274739  0.2524640

 Al 
  0.7434174  0.5021917  0.2671947

 Al 
  0.7436785  0.7379424  0.9821123

 Al 
  0.5031199  0.0022697  0.4972959

 Al 
  0.5150042  0.2448938  0.7531137

 Al 
  0.7588968  0.9903445  0.7385612

 Al 
  0.7474803  0.2470360  0.5024330

 Al 
  0.4836815  0.4910995  0.5037313

 Al 
  0.5040456  0.7717885  0.7339513

 Al 
  0.7495904  0.4959891  0.7492265

 Al 
  0.7451809  0.7510482  0.5143099

