32 
charge = 0 
 Al 
  0.9902678  0.0202119  0.9952465

 Al 
  0.0090491  0.2461252  0.2530234

 Al 
  0.2509257  0.0005210  0.2484778

 Al 
  0.2631392  0.2404683  0.0048079

 Al 
  0.5024788  0.9875650  0.9808673

 Al 
  0.4955695  0.2679570  0.2583300

 Al 
  0.7359735  0.0030419  0.2457886

 Al 
  0.7574588  0.2731894  0.0102247

 Al 
  0.0093448  0.5059861  0.0044849

 Al 
  0.9973343  0.7654336  0.2341629

 Al 
  0.2513032  0.4983899  0.2399460

 Al 
  0.2545889  0.7464135  0.0039070

 Al 
  0.9934459  0.9938072  0.4936934

 Al 
  0.0044020  0.2441129  0.7516286

 Al 
  0.2436649  0.9980001  0.7510792

 Al 
  0.2450918  0.2416539  0.5119610

 Al 
  0.9952403  0.5054824  0.5103151

 Al 
  0.0031347  0.7618967  0.7537622

 Al 
  0.2500903  0.4862197  0.7587174

 Al 
  0.2453938  0.7523625  0.5064923

 Al 
  0.5050233  0.4998948  0.9919051

 Al 
  0.5018910  0.7280135  0.2517474

 Al 
  0.7441092  0.5015742  0.2667207

 Al 
  0.7436476  0.7374041  0.9813103

 Al 
  0.5033216  0.0008675  0.4961301

 Al 
  0.5148730  0.2460497  0.7528749

 Al 
  0.7597136  0.9901342  0.7375761

 Al 
  0.7472811  0.2475843  0.5028650

 Al 
  0.4833672  0.4909819  0.5033179

 Al 
  0.5039095  0.7724382  0.7339463

 Al 
  0.7497228  0.4955423  0.7503106

 Al 
  0.7452478  0.7506807  0.5143768

