32 
charge = 0 
 Al 
  0.9926575  0.0213220  0.9956289

 Al 
  0.0085528  0.2466611  0.2531038

 Al 
  0.2512450  0.0007871  0.2487352

 Al 
  0.2617841  0.2392481  0.0053549

 Al 
  0.5040642  0.9881751  0.9803735

 Al 
  0.4964544  0.2675387  0.2590639

 Al 
  0.7348126  0.0014022  0.2457960

 Al 
  0.7570838  0.2729791  0.0098955

 Al 
  0.0098386  0.5055257  0.0039701

 Al 
  0.9957329  0.7642889  0.2344018

 Al 
  0.2518477  0.4976251  0.2387184

 Al 
  0.2573437  0.7466252  0.0047337

 Al 
  0.9943530  0.9950448  0.4936105

 Al 
  0.0049837  0.2458616  0.7509405

 Al 
  0.2431501  0.9989023  0.7510940

 Al 
  0.2442292  0.2417838  0.5112940

 Al 
  0.9949025  0.5050876  0.5075875

 Al 
  0.0021831  0.7612742  0.7534330

 Al 
  0.2491300  0.4857977  0.7569836

 Al 
  0.2463814  0.7508032  0.5067484

 Al 
  0.5051272  0.5007326  0.9925486

 Al 
  0.5005841  0.7272573  0.2528142

 Al 
  0.7431068  0.5024962  0.2674125

 Al 
  0.7437058  0.7382271  0.9825380

 Al 
  0.5030036  0.0029664  0.4978553

 Al 
  0.5150537  0.2443270  0.7532288

 Al 
  0.7584847  0.9904893  0.7390723

 Al 
  0.7475855  0.2467761  0.5022177

 Al 
  0.4838535  0.4911712  0.5039627

 Al 
  0.5040840  0.7714074  0.7339711

 Al 
  0.7495248  0.4962081  0.7486795

 Al 
  0.7451574  0.7512079  0.5142320

