32 
charge = 0 
 Al 
  0.9942391  0.0219370  0.9959123

 Al 
  0.0081890  0.2470707  0.2531743

 Al 
  0.2514987  0.0009245  0.2489060

 Al 
  0.2608819  0.2384944  0.0056779

 Al 
  0.5051161  0.9886478  0.9802015

 Al 
  0.4970583  0.2671217  0.2594748

 Al 
  0.7340713  0.0003267  0.2457700

 Al 
  0.7568004  0.2727414  0.0096703

 Al 
  0.0101121  0.5051916  0.0036137

 Al 
  0.9946735  0.7634882  0.2346022

 Al 
  0.2521286  0.4971338  0.2380068

 Al 
  0.2591159  0.7468059  0.0052188

 Al 
  0.9949743  0.9958678  0.4935597

 Al 
  0.0053030  0.2470769  0.7504740

 Al 
  0.2428543  0.9994901  0.7510866

 Al 
  0.2436996  0.2419039  0.5108163

 Al 
  0.9947292  0.5048104  0.5057893

 Al 
  0.0016051  0.7607705  0.7532313

 Al 
  0.2485224  0.4855935  0.7558289

 Al 
  0.2470199  0.7497624  0.5068709

 Al 
  0.5051594  0.5012673  0.9929632

 Al 
  0.4997290  0.7269331  0.2535023

 Al 
  0.7425499  0.5030976  0.2678135

 Al 
  0.7437825  0.7388298  0.9834439

 Al 
  0.5027400  0.0043587  0.4989345

 Al 
  0.5151218  0.2432157  0.7534478

 Al 
  0.7576531  0.9908606  0.7401342

 Al 
  0.7478083  0.2462811  0.5017920

 Al 
  0.4842322  0.4913395  0.5044750

 Al 
  0.5041025  0.7705299  0.7340491

 Al 
  0.7493973  0.4966400  0.7475707

 Al 
  0.7451302  0.7514876  0.5139894

