32 
charge = 0 
 Al 
  0.9878298  0.0188493  0.9949149

 Al 
  0.0094971  0.2456797  0.2529751

 Al 
  0.2506844  0.0001807  0.2482006

 Al 
  0.2644968  0.2418110  0.0041805

 Al 
  0.5008651  0.9870662  0.9816606

 Al 
  0.4946970  0.2681216  0.2574427

 Al 
  0.7372185  0.0047399  0.2457205

 Al 
  0.7577806  0.2732167  0.0105515

 Al 
  0.0087335  0.5063932  0.0049849

 Al 
  0.9989617  0.7665239  0.2340008

 Al 
  0.2505990  0.4992092  0.2413903

 Al 
  0.2516880  0.7462749  0.0029503

 Al 
  0.9925585  0.9925561  0.4937775

 Al 
  0.0036966  0.2424335  0.7523118

 Al 
  0.2442701  0.9970682  0.7510396

 Al 
  0.2460472  0.2415809  0.5125848

 Al 
  0.9956834  0.5058537  0.5131281

 Al 
  0.0041953  0.7623558  0.7541322

 Al 
  0.2511126  0.4867927  0.7604661

 Al 
  0.2443654  0.7539317  0.5061371

 Al 
  0.5048413  0.4990137  0.9912430

 Al 
  0.5032449  0.7291099  0.2506101

 Al 
  0.7453431  0.5006188  0.2659138

 Al 
  0.7436587  0.7366814  0.9802312

 Al 
  0.5035469  0.9987315  0.4942404

 Al 
  0.5145884  0.2478380  0.7524850

 Al 
  0.7609178  0.9900277  0.7361839

 Al 
  0.7470175  0.2484852  0.5035283

 Al 
  0.4829674  0.4908903  0.5028167

 Al 
  0.5035481  0.7731288  0.7340317

 Al 
  0.7499443  0.4948468  0.7519182

 Al 
  0.7454037  0.7499876  0.5142505

