32 
charge = 0 
 Al 
  0.9844562  0.0165908  0.9945522

 Al 
  0.0100292  0.2452341  0.2529615

 Al 
  0.2505062  0.9996139  0.2477711

 Al 
  0.2662962  0.2438048  0.0032078

 Al 
  0.4986424  0.9865675  0.9832187

 Al 
  0.4935374  0.2679236  0.2559923

 Al 
  0.7390500  0.0071358  0.2455237

 Al 
  0.7581357  0.2729370  0.0109834

 Al 
  0.0077014  0.5068313  0.0056458

 Al 
  0.0011683  0.7678976  0.2339154

 Al 
  0.2493899  0.5004294  0.2437033

 Al 
  0.2475670  0.7462192  0.0014529

 Al 
  0.9913965  0.9908656  0.4938815

 Al 
  0.0025630  0.2402938  0.7532313

 Al 
  0.2452403  0.9957923  0.7509603

 Al 
  0.2474865  0.2415648  0.5133657

 Al 
  0.9964531  0.5063066  0.5170833

 Al 
  0.0057856  0.7626937  0.7547052

 Al 
  0.2525741  0.4878137  0.7628335

 Al 
  0.2429385  0.7560529  0.5054762

 Al 
  0.5044614  0.4977885  0.9903483

 Al 
  0.5051458  0.7311395  0.2489369

 Al 
  0.7474123  0.4992884  0.2646453

 Al 
  0.7437874  0.7359042  0.9790233

 Al 
  0.5037003  0.9957948  0.4914002

 Al 
  0.5140265  0.2503057  0.7518972

 Al 
  0.7624548  0.9902888  0.7344909

 Al 
  0.7467378  0.2498490  0.5044379

 Al 
  0.4825652  0.4909670  0.5023613

 Al 
  0.5027573  0.7734951  0.7343176

 Al 
  0.7503082  0.4938654  0.7540419

 Al 
  0.7457267  0.7487426  0.5136305

