32 
charge = 0 
 Al 
  0.9800530  0.0130043  0.9942441

 Al 
  0.0105935  0.2449359  0.2530407

 Al 
  0.2505569  0.9987476  0.2471029

 Al 
  0.2684347  0.2466004  0.0017722

 Al 
  0.4957601  0.9862173  0.9859933

 Al 
  0.4920969  0.2669682  0.2537473

 Al 
  0.7416514  0.0103398  0.2450980

 Al 
  0.7584649  0.2719989  0.0115031

 Al 
  0.0060207  0.5071407  0.0064663

 Al 
  0.0038934  0.7694495  0.2340701

 Al 
  0.2474481  0.5022004  0.2472613

 Al 
  0.2420969  0.7464074  0.9992364

 Al 
  0.9899894  0.9887691  0.4939582

 Al 
  0.0008601  0.2378298  0.7543971

 Al 
  0.2467440  0.9942132  0.7508477

 Al 
  0.2495471  0.2416638  0.5142679

 Al 
  0.9977204  0.5067682  0.5223665

 Al 
  0.0079947  0.7626207  0.7555529

 Al 
  0.2545258  0.4895315  0.7657938

 Al 
  0.2411292  0.7587063  0.5042956

 Al 
  0.5037399  0.4962613  0.9893013

 Al 
  0.5076617  0.7346047  0.2465410

 Al 
  0.7507339  0.4975707  0.2627667

 Al 
  0.7441451  0.7353299  0.9779305

 Al 
  0.5036397  0.9920041  0.4873038

 Al 
  0.5129895  0.2533996  0.7510581

 Al 
  0.7641491  0.9912715  0.7326964

 Al 
  0.7465460  0.2518031  0.5055888

 Al 
  0.4822818  0.4914794  0.5021150

 Al 
  0.5012598  0.7729989  0.7349624

 Al 
  0.7509430  0.4925759  0.7566234

 Al 
  0.7463306  0.7465880  0.5120959

