32 
charge = 0 
 Al 
  0.9818313  0.0145389  0.9943456

 Al 
  0.0103807  0.2450188  0.2529949

 Al 
  0.2504975  0.9991114  0.2473900

 Al 
  0.2676056  0.2454495  0.0023736

 Al 
  0.4969209  0.9863200  0.9847767

 Al 
  0.4926687  0.2674447  0.2546990

 Al 
  0.7405722  0.0090354  0.2452923

 Al 
  0.7583498  0.2724580  0.0113014

 Al 
  0.0067460  0.5070541  0.0061395

 Al 
  0.0028204  0.7688567  0.2339699

 Al 
  0.2482786  0.5014578  0.2457514

 Al 
  0.2443097  0.7462947  0.0001634

 Al 
  0.9905413  0.9895970  0.4939384

 Al 
  0.0015742  0.2387790  0.7539293

 Al 
  0.2461042  0.9948344  0.7508923

 Al 
  0.2486919  0.2416106  0.5139176

 Al 
  0.9971746  0.5066024  0.5202168

 Al 
  0.0070925  0.7627197  0.7551978

 Al 
  0.2537350  0.4887852  0.7646206

 Al 
  0.2418482  0.7576531  0.5048178

 Al 
  0.5040617  0.4968615  0.9897010

 Al 
  0.5066420  0.7331011  0.2475397

 Al 
  0.7493094  0.4982587  0.2635538

 Al 
  0.7439743  0.7354970  0.9783068

 Al 
  0.5036978  0.9935288  0.4890104

 Al 
  0.5134511  0.2521769  0.7514071

 Al 
  0.7635154  0.9907925  0.7333647

 Al 
  0.7465979  0.2509925  0.5051322

 Al 
  0.4823635  0.4912133  0.5021719

 Al 
  0.5019244  0.7733281  0.7346666

 Al 
  0.7506596  0.4930969  0.7556074

 Al 
  0.7460621  0.7475311  0.5128112

