32 
charge = 0 
 Al 
  0.9809440  0.0137877  0.9942911

 Al 
  0.0104896  0.2449718  0.2530147

 Al 
  0.2505198  0.9989320  0.2472501

 Al 
  0.2680251  0.2460212  0.0020779

 Al 
  0.4963405  0.9862618  0.9853683

 Al 
  0.4923816  0.2672219  0.2542312

 Al 
  0.7411056  0.0096852  0.2451983

 Al 
  0.7584105  0.2722427  0.0114041

 Al 
  0.0063920  0.5071048  0.0063029

 Al 
  0.0033612  0.7691587  0.2340132

 Al 
  0.2478714  0.5018242  0.2464927

 Al 
  0.2432045  0.7463442  0.9997067

 Al 
  0.9902629  0.9891800  0.4939508

 Al 
  0.0012215  0.2382976  0.7541632

 Al 
  0.2464185  0.9945213  0.7508700

 Al 
  0.2491151  0.2416353  0.5140946

 Al 
  0.9974407  0.5066890  0.5212873

 Al 
  0.0075417  0.7626825  0.7553735

 Al 
  0.2541285  0.4891491  0.7652109

 Al 
  0.2414868  0.7581815  0.5045654

 Al 
  0.5039057  0.4965583  0.9894968

 Al 
  0.5071506  0.7338337  0.2470472

 Al 
  0.7500062  0.4979147  0.2631652

 Al 
  0.7440547  0.7354030  0.9781075

 Al 
  0.5036743  0.9927664  0.4881677

 Al 
  0.5132283  0.2527932  0.7512338

 Al 
  0.7638409  0.9910190  0.7330219

 Al 
  0.7465682  0.2513935  0.5053624

 Al 
  0.4823177  0.4913358  0.5021373

 Al 
  0.5016026  0.7731857  0.7348089

 Al 
  0.7507970  0.4928358  0.7561185

 Al 
  0.7461920  0.7470732  0.5124697

