32 
charge = 0 
 Al 
  0.9717452  0.0041124  0.9942342

 Al 
  0.0114425  0.2451983  0.2535865

 Al 
  0.2515630  0.9969271  0.2453270

 Al 
  0.2713319  0.2522870  0.9985434

 Al 
  0.4904262  0.9864833  0.9934174

 Al 
  0.4896849  0.2630946  0.2485632

 Al 
  0.7472922  0.0165932  0.2438815

 Al 
  0.7585936  0.2681117  0.0122061

 Al 
  0.0016670  0.5066370  0.0079328

 Al 
  0.0080800  0.7714197  0.2354289

 Al 
  0.2427689  0.5063128  0.2558042

 Al 
  0.2320343  0.7477749  0.9944780

 Al 
  0.9877506  0.9854710  0.4937020

 Al 
  0.9971784  0.2343139  0.7565987

 Al 
  0.2504232  0.9919286  0.7507165

 Al 
  0.2538958  0.2420647  0.5156156

 Al 
  0.0010074  0.5070281  0.5326989

 Al 
  0.0120662  0.7607755  0.7573239

 Al 
  0.2581555  0.4941191  0.7706562

 Al 
  0.2381479  0.7632023  0.5008230

 Al 
  0.5017425  0.4940547  0.9882654

 Al 
  0.5125637  0.7434285  0.2410908

 Al 
  0.7589587  0.4945708  0.2586209

 Al 
  0.7454371  0.7360415  0.9774863

 Al 
  0.5028464  0.9850193  0.4783810

 Al 
  0.5099933  0.2582521  0.7492278

 Al 
  0.7656849  0.9948344  0.7306618

 Al 
  0.7468257  0.2559613  0.5074316

 Al 
  0.4826246  0.4940807  0.5024219

 Al 
  0.4971177  0.7689644  0.7370254

 Al 
  0.7529244  0.4902010  0.7608534

 Al 
  0.7480249  0.7407368  0.5069972

