32 
charge = 0 
 Al 
  0.9732315  0.0059539  0.9941723

 Al 
  0.0112903  0.2450696  0.2534367

 Al 
  0.2512908  0.9972551  0.2457180

 Al 
  0.2709841  0.2512363  0.9991832

 Al 
  0.4913668  0.9863311  0.9918568

 Al 
  0.4900747  0.2640092  0.2495867

 Al 
  0.7461957  0.0154497  0.2441290

 Al 
  0.7586369  0.2690708  0.0121269

 Al 
  0.0025853  0.5068685  0.0076754

 Al 
  0.0074712  0.7711908  0.2350465

 Al 
  0.2437157  0.5054737  0.2540518

 Al 
  0.2337731  0.7474011  0.9953703

 Al 
  0.9881008  0.9859648  0.4938060

 Al 
  0.9978640  0.2348151  0.7561891

 Al 
  0.2496659  0.9922244  0.7507240

 Al 
  0.2530766  0.2419794  0.5154126

 Al 
  0.0003044  0.5070690  0.5308029

 Al 
  0.0113881  0.7613014  0.7570096

 Al 
  0.2575281  0.4931303  0.7698901

 Al 
  0.2386206  0.7624623  0.5016002

 Al 
  0.5021534  0.4943382  0.9883001

 Al 
  0.5116541  0.7416155  0.2421972

 Al 
  0.7572670  0.4950696  0.2594278

 Al 
  0.7451413  0.7356864  0.9773786

 Al 
  0.5030419  0.9862532  0.4801062

 Al 
  0.5106468  0.2575306  0.7495891

 Al 
  0.7656552  0.9940362  0.7308797

 Al 
  0.7467031  0.2551656  0.5071543

 Al 
  0.4824489  0.4934075  0.5023093

 Al 
  0.4979877  0.7700374  0.7365576

 Al 
  0.7524714  0.4906119  0.7601616

 Al 
  0.7476647  0.7419893  0.5081518

