32 
charge = 0 
 Al 
  0.9748329  0.0077954  0.9941401

 Al 
  0.0111343  0.2449730  0.2533055

 Al 
  0.2510445  0.9976115  0.2460943

 Al 
  0.2705027  0.2501200  0.9998366

 Al 
  0.4923878  0.9862259  0.9903012

 Al 
  0.4905190  0.2648743  0.2506373

 Al 
  0.7450646  0.0142332  0.2443839

 Al 
  0.7586431  0.2699520  0.0120118

 Al 
  0.0034961  0.5070343  0.0073969

 Al 
  0.0067299  0.7708715  0.2347173

 Al 
  0.2446748  0.5046310  0.2522932

 Al 
  0.2356864  0.7470732  0.9963145

 Al 
  0.9885055  0.9865551  0.4938827

 Al 
  0.9985954  0.2354240  0.7557621

 Al 
  0.2489048  0.9926142  0.7507425

 Al 
  0.2522152  0.2418940  0.5151738

 Al 
  0.9996151  0.5070591  0.5287894

 Al 
  0.0106208  0.7617581  0.7566630

 Al 
  0.2568363  0.4921638  0.7690028

 Al 
  0.2391651  0.7616281  0.5023477

 Al 
  0.5025717  0.4947131  0.9884313

 Al 
  0.5106975  0.7397864  0.2433085

 Al 
  0.7555678  0.4956289  0.2602594

 Al 
  0.7448567  0.7354364  0.9773675

 Al 
  0.5032300  0.9875897  0.4818945

 Al 
  0.5112866  0.2566655  0.7499567

 Al 
  0.7654720  0.9932578  0.7311928

 Al 
  0.7466116  0.2543377  0.5068239

 Al 
  0.4823264  0.4928036  0.5022140

 Al 
  0.4988602  0.7709977  0.7361108

 Al 
  0.7520383  0.4910648  0.7593832

 Al 
  0.7473058  0.7432243  0.5092619

