32 
charge = 0 
 Al 
  0.9756695  0.0087063  0.9941352

 Al 
  0.0110527  0.2449396  0.2532474

 Al 
  0.2509344  0.9977971  0.2462762

 Al 
  0.2702181  0.2495446  0.0001646

 Al 
  0.4929236  0.9861925  0.9895352

 Al 
  0.4907604  0.2652814  0.2511683

 Al 
  0.7444916  0.0136020  0.2445114

 Al 
  0.7586332  0.2703591  0.0119425

 Al 
  0.0039441  0.5070925  0.0072496

 Al 
  0.0063153  0.7706797  0.2345725

 Al 
  0.2451537  0.5042127  0.2514207

 Al 
  0.2366974  0.7469284  0.9967997

 Al 
  0.9887270  0.9868831  0.4939124

 Al 
  0.9989716  0.2357680  0.7555418

 Al 
  0.2485285  0.9928407  0.7507549

 Al 
  0.2517734  0.2418507  0.5150413

 Al 
  0.9992797  0.5070368  0.5277474

 Al 
  0.0102099  0.7619573  0.7564811

 Al 
  0.2564700  0.4916922  0.7685176

 Al 
  0.2394622  0.7611801  0.5027065

 Al 
  0.5027808  0.4949322  0.9885303

 Al 
  0.5102049  0.7388793  0.2438629

 Al 
  0.7547238  0.4959297  0.2606814

 Al 
  0.7447206  0.7353510  0.9773996

 Al 
  0.5033179  0.9882902  0.4828028

 Al 
  0.5115960  0.2561841  0.7501423

 Al 
  0.7653272  0.9928828  0.7313846

 Al 
  0.7465769  0.2539156  0.5066408

 Al 
  0.4822868  0.4925301  0.5021744

 Al 
  0.4992884  0.7714284  0.7358967

 Al 
  0.7518328  0.4913036  0.7589649

 Al 
  0.7471301  0.7438270  0.5097928

