32 
charge = 0 
 Al 
  0.9791632  0.0121912  0.9942057

 Al 
  0.0106938  0.2449136  0.2530704

 Al 
  0.2506076  0.9985595  0.2469494

 Al 
  0.2688295  0.2471883  0.0014603

 Al 
  0.4951809  0.9861863  0.9866504

 Al 
  0.4918172  0.2666848  0.2532498

 Al 
  0.7422083  0.0109970  0.2449903

 Al 
  0.7585132  0.2717266  0.0116009

 Al 
  0.0056321  0.5071630  0.0066271

 Al 
  0.0044131  0.7697267  0.2341419

 Al 
  0.2470100  0.5025865  0.2480546

 Al 
  0.2409905  0.7464841  0.9987575

 Al 
  0.9897208  0.9883669  0.4939607

 Al 
  0.0004901  0.2373781  0.7546297

 Al 
  0.2470818  0.9939149  0.7508267

 Al 
  0.2499864  0.2416960  0.5144349

 Al 
  0.9980125  0.5068412  0.5234506

 Al 
  0.0084476  0.7625353  0.7557361

 Al 
  0.2549218  0.4899324  0.7663692

 Al 
  0.2407777  0.7592248  0.5040085

 Al 
  0.5035629  0.4959705  0.9891181

 Al 
  0.5081741  0.7354079  0.2460237

 Al 
  0.7514888  0.4972303  0.2623595

 Al 
  0.7442441  0.7352829  0.9777759

 Al 
  0.5035939  0.9912442  0.4864239

 Al 
  0.5127370  0.2539949  0.7508787

 Al 
  0.7644362  0.9915499  0.7323907

 Al 
  0.7465336  0.2522189  0.5058128

 Al 
  0.4822583  0.4916465  0.5021051

 Al 
  0.5008972  0.7727674  0.7351282

 Al 
  0.7511002  0.4923147  0.7571185

 Al 
  0.7464767  0.7460782  0.5116913

