32 
charge = 0 
 Al 
  0.9664076  0.9954619  0.9948270

 Al 
  0.0123113  0.2461029  0.2545567

 Al 
  0.2529813  0.9959136  0.2431971

 Al 
  0.2708492  0.2562806  0.9956710

 Al 
  0.4871417  0.9878645  0.0005718

 Al 
  0.4886540  0.2582434  0.2441983

 Al 
  0.7520061  0.0209730  0.2430090

 Al 
  0.7577632  0.2624189  0.0119276

 Al 
  0.9973021  0.5046000  0.0088622

 Al 
  0.0089760  0.7711524  0.2380192

 Al 
  0.2385080  0.5102532  0.2640773

 Al 
  0.2263613  0.7502240  0.9912405

 Al 
  0.9868398  0.9845577  0.4929199

 Al 
  0.9948258  0.2333498  0.7584030

 Al 
  0.2539169  0.9920214  0.7508279

 Al 
  0.2570962  0.2424125  0.5160611

 Al 
  0.0046520  0.5060195  0.5401168

 Al 
  0.0137642  0.7574637  0.7580640

 Al 
  0.2601059  0.4991114  0.7725014

 Al 
  0.2369091  0.7654336  0.4967861

 Al 
  0.5001844  0.4941760  0.9896824

 Al 
  0.5163730  0.7514999  0.2357829

 Al 
  0.7667541  0.4931006  0.2551619

 Al 
  0.7468380  0.7391218  0.9792745

 Al 
  0.5020209  0.9805529  0.4712923

 Al 
  0.5068103  0.2595911  0.7476090

 Al 
  0.7633991  0.9985657  0.7308215

 Al 
  0.7477674  0.2593052  0.5079080

 Al 
  0.4843164  0.4982736  0.5029763

 Al 
  0.4932120  0.7624288  0.7395352

 Al 
  0.7552473  0.4888718  0.7630971

 Al 
  0.7497067  0.7346517  0.5010235

