32 
charge = 0 
 Al 
  0.9710509  0.0032003  0.9942750

 Al 
  0.0115180  0.2452713  0.2536669

 Al 
  0.2517054  0.9967761  0.2451265

 Al 
  0.2714531  0.2527833  0.9982303

 Al 
  0.4899906  0.9865749  0.9941921

 Al 
  0.4895129  0.2626231  0.2480657

 Al 
  0.7478244  0.0171341  0.2437627

 Al 
  0.7585577  0.2676056  0.0122308

 Al 
  0.0012091  0.5064984  0.0080528

 Al 
  0.0083325  0.7714989  0.2356393

 Al 
  0.2423048  0.5067286  0.2566729

 Al 
  0.2312373  0.7479778  0.9940560

 Al 
  0.9875984  0.9852619  0.4936414

 Al 
  0.9968566  0.2341047  0.7567955

 Al 
  0.2507982  0.9918185  0.7507165

 Al 
  0.2542857  0.2421056  0.5157022

 Al 
  0.0013626  0.5069885  0.5335973

 Al 
  0.0123670  0.7604908  0.7574650

 Al 
  0.2584414  0.4946166  0.7709903

 Al 
  0.2379387  0.7635340  0.5004270

 Al 
  0.5015445  0.4939508  0.9882865

 Al 
  0.5129994  0.7443196  0.2405413

 Al 
  0.7597941  0.4943468  0.2582310

 Al 
  0.7455869  0.7362544  0.9775754

 Al 
  0.5027474  0.9844438  0.4775506

 Al 
  0.5096654  0.2585565  0.7490520

 Al 
  0.7656403  0.9952341  0.7305876

 Al 
  0.7468974  0.2563450  0.5075479

 Al 
  0.4827335  0.4944409  0.5024813

 Al 
  0.4966870  0.7683927  0.7372655

 Al 
  0.7531558  0.4900129  0.7611665

 Al 
  0.7482031  0.7401094  0.5064093

