32 
charge = 0 
 Al 
  0.9671885  0.9971029  0.9946847

 Al 
  0.0121046  0.2459012  0.2543364

 Al 
  0.2527177  0.9960237  0.2436476

 Al 
  0.2712539  0.2556507  0.9962032

 Al 
  0.4876095  0.9875056  0.9992661

 Al 
  0.4887394  0.2592260  0.2449619

 Al 
  0.7511670  0.0202750  0.2431154

 Al 
  0.7580182  0.2636676  0.0120836

 Al 
  0.9981288  0.5051198  0.0087223

 Al 
  0.0090862  0.7713950  0.2374152

 Al 
  0.2392914  0.5095045  0.2624944

 Al 
  0.2270940  0.7496609  0.9917021

 Al 
  0.9869190  0.9845329  0.4930981

 Al 
  0.9951339  0.2333560  0.7580640

 Al 
  0.2532647  0.9917900  0.7507883

 Al 
  0.2565801  0.2423543  0.5160462

 Al 
  0.0039020  0.5063376  0.5389015

 Al 
  0.0136664  0.7581951  0.7580503

 Al 
  0.2598770  0.4981115  0.7723949

 Al 
  0.2370081  0.7651700  0.4975979

 Al 
  0.5004084  0.4939446  0.9891800

 Al 
  0.5156960  0.7500520  0.2368187

 Al 
  0.7652975  0.4932615  0.2557782

 Al 
  0.7465819  0.7383508  0.9787659

 Al 
  0.5021459  0.9812262  0.4724853

 Al 
  0.5074229  0.2596159  0.7479085

 Al 
  0.7641874  0.9978838  0.7306445

 Al 
  0.7475422  0.2587174  0.5079340

 Al 
  0.4838684  0.4973331  0.5028835

 Al 
  0.4939137  0.7638657  0.7390117

 Al 
  0.7547906  0.4890377  0.7627902

 Al 
  0.7493911  0.7358287  0.5022264

