32 
charge = 0 
 Al 
  0.9667801  0.9962774  0.9947552

 Al 
  0.0122048  0.2460014  0.2544453

 Al 
  0.2528526  0.9959631  0.2434236

 Al 
  0.2710707  0.2559762  0.9959346

 Al 
  0.4873645  0.9876801  0.9999270

 Al 
  0.4886887  0.2587347  0.2445733

 Al 
  0.7515915  0.0206351  0.2430573

 Al 
  0.7578969  0.2630501  0.0120130

 Al 
  0.9977130  0.5048673  0.0087954

 Al 
  0.0090491  0.7712848  0.2377110

 Al 
  0.2388954  0.5098819  0.2632889

 Al 
  0.2267041  0.7499381  0.9914596

 Al 
  0.9868732  0.9845329  0.4930090

 Al 
  0.9949693  0.2333424  0.7582347

 Al 
  0.2535939  0.9918927  0.7508069

 Al 
  0.2568462  0.2423840  0.5160586

 Al 
  0.0042745  0.5061866  0.5395240

 Al 
  0.0137308  0.7578338  0.7580664

 Al 
  0.2600020  0.4986115  0.7724642

 Al 
  0.2369499  0.7653124  0.4971920

 Al 
  0.5002896  0.4940473  0.9894164

 Al 
  0.5160388  0.7507871  0.2363002

 Al 
  0.7660314  0.4931736  0.2554663

 Al 
  0.7467118  0.7387270  0.9790109

 Al 
  0.5020803  0.9808772  0.4718752

 Al 
  0.5071147  0.2596208  0.7477575

 Al 
  0.7638137  0.9982290  0.7307250

 Al 
  0.7476523  0.2590156  0.5079291

 Al 
  0.4840849  0.4977971  0.5029318

 Al 
  0.4935585  0.7631553  0.7392716

 Al 
  0.7550208  0.4889486  0.7629511

 Al 
  0.7495495  0.7352371  0.5016249

