32 
charge = 0 
 Al 
  0.9649064  0.9907158  0.9952564

 Al 
  0.0131169  0.2467514  0.2553079

 Al 
  0.2535988  0.9958715  0.2417331

 Al 
  0.2686327  0.2577385  0.9941550

 Al 
  0.4862668  0.9892493  0.0040505

 Al 
  0.4887382  0.2552609  0.2421922

 Al 
  0.7542943  0.0225880  0.2429645

 Al 
  0.7566705  0.2582620  0.0110774

 Al 
  0.9949681  0.5026843  0.0091456

 Al 
  0.0077558  0.7698258  0.2401144

 Al 
  0.2363150  0.5124078  0.2687243

 Al 
  0.2252871  0.7521707  0.9904572

 Al 
  0.9868744  0.9852557  0.4924014

 Al 
  0.9944124  0.2338090  0.7594265

 Al 
  0.2557670  0.9933580  0.7509876

 Al 
  0.2583065  0.2425746  0.5158631

 Al 
  0.0070368  0.5046297  0.5430845

 Al 
  0.0132790  0.7550938  0.7576184

 Al 
  0.2603386  0.5021744  0.7720794

 Al 
  0.2370390  0.7657764  0.4943518

 Al 
  0.4998156  0.4954940  0.9919175

 Al 
  0.5182553  0.7553413  0.2326432

 Al 
  0.7708938  0.4929706  0.2534714

 Al 
  0.7474964  0.7418705  0.9812311

 Al 
  0.5018167  0.9791137  0.4683753

 Al 
  0.5050406  0.2587050  0.7467700

 Al 
  0.7599574  0.0003886  0.7317262

 Al 
  0.7485570  0.2609079  0.5074625

 Al 
  0.4860378  0.5014492  0.5031533

 Al 
  0.4913470  0.7576952  0.7412195

 Al 
  0.7565554  0.4886689  0.7637023

 Al 
  0.7506237  0.7311952  0.4973368

