32 
charge = 0 
 Al 
  0.9652641  0.9922751  0.9951153

 Al 
  0.0128125  0.2465274  0.2550406

 Al 
  0.2534293  0.9958368  0.2422430

 Al 
  0.2695461  0.2573177  0.9946513

 Al 
  0.4864722  0.9887295  0.0029664

 Al 
  0.4886540  0.2562633  0.2428172

 Al 
  0.7535629  0.0221264  0.2429273

 Al 
  0.7570949  0.2597260  0.0114314

 Al 
  0.9957217  0.5033860  0.0090738

 Al 
  0.0083152  0.7703728  0.2393644

 Al 
  0.2370242  0.5117036  0.2671848

 Al 
  0.2254616  0.7514752  0.9906143

 Al 
  0.9868187  0.9849166  0.4925672

 Al 
  0.9944631  0.2335800  0.7590800

 Al 
  0.2551656  0.9928036  0.7509282

 Al 
  0.2579563  0.2425214  0.5159720

 Al 
  0.0062126  0.5051742  0.5422034

 Al 
  0.0135748  0.7559131  0.7578523

 Al 
  0.2603349  0.5011386  0.7723430

 Al 
  0.2369227  0.7657307  0.4951624

 Al 
  0.4998874  0.4949495  0.9910438

 Al 
  0.5176464  0.7541434  0.2337025

 Al 
  0.7695448  0.4929570  0.2540122

 Al 
  0.7472959  0.7408816  0.9805059

 Al 
  0.5018539  0.9795010  0.4692391

 Al 
  0.5056210  0.2591344  0.7470398

 Al 
  0.7612928  0.9998181  0.7313635

 Al 
  0.7482736  0.2603943  0.5076741

 Al 
  0.4853955  0.5003267  0.5031137

 Al 
  0.4919299  0.7593510  0.7406329

 Al 
  0.7561321  0.4886850  0.7635464

 Al 
  0.7503205  0.7323400  0.4985842

