32 
charge = 0 
 Al 
  0.9654980  0.9930622  0.9950436

 Al 
  0.0126739  0.2464185  0.2549144

 Al 
  0.2533290  0.9958381  0.2424892

 Al 
  0.2699359  0.2570838  0.9949025

 Al 
  0.4866071  0.9884931  0.0023959

 Al 
  0.4886330  0.2567608  0.2431451

 Al 
  0.7531867  0.0218677  0.2429298

 Al 
  0.7572831  0.2604265  0.0115799

 Al 
  0.9961079  0.5037127  0.0090293

 Al 
  0.0085355  0.7706054  0.2390092

 Al 
  0.2373855  0.5113460  0.2664126

 Al 
  0.2256175  0.7511460  0.9907319

 Al 
  0.9868076  0.9847879  0.4926538

 Al 
  0.9945213  0.2334934  0.7589104

 Al 
  0.2548587  0.9925684  0.7509009

 Al 
  0.2577620  0.2424954  0.5160091

 Al 
  0.0058128  0.5054143  0.5417219

 Al 
  0.0136714  0.7563116  0.7579365

 Al 
  0.2603064  0.5006262  0.7724296

 Al 
  0.2368930  0.7656824  0.4955683

 Al 
  0.4999431  0.4947168  0.9906576

 Al 
  0.5173370  0.7535134  0.2342260

 Al 
  0.7688592  0.4929706  0.2542906

 Al 
  0.7471883  0.7404151  0.9801718

 Al 
  0.5018836  0.9797287  0.4697119

 Al 
  0.5059143  0.2592990  0.7471796

 Al 
  0.7618880  0.9995186  0.7312051

 Al 
  0.7481399  0.2601307  0.5077558

 Al 
  0.4851010  0.4997909  0.5030865

 Al 
  0.4922368  0.7601480  0.7403507

 Al 
  0.7559143  0.4887134  0.7634535

 Al 
  0.7501683  0.7329142  0.4992005

