32 
charge = 0 
 Al 
  0.9650908  0.9846456  0.9956834

 Al 
  0.0148050  0.2477489  0.2565677

 Al 
  0.2537251  0.9965336  0.2394287

 Al 
  0.2630414  0.2588708  0.9922553

 Al 
  0.4863497  0.9920994  0.0074427

 Al 
  0.4896255  0.2511596  0.2401082

 Al 
  0.7569898  0.0236548  0.2437478

 Al 
  0.7542362  0.2514653  0.0087929

 Al 
  0.9922999  0.4992129  0.0091332

 Al 
  0.0038859  0.7664583  0.2436860

 Al 
  0.2336691  0.5150599  0.2748453

 Al 
  0.2264232  0.7554614  0.9909683

 Al 
  0.9875192  0.9877815  0.4919682

 Al 
  0.9950931  0.2354054  0.7609425

 Al 
  0.2580553  0.9966685  0.7512611

 Al 
  0.2592025  0.2428271  0.5148965

 Al 
  0.0107037  0.5014257  0.5455126

 Al 
  0.0106418  0.7515606  0.7557571

 Al 
  0.2596418  0.5065232  0.7698282

 Al 
  0.2383026  0.7654064  0.4911787

 Al 
  0.5000223  0.4987364  0.9968281

 Al 
  0.5205349  0.7592297  0.2282115

 Al 
  0.7760495  0.4935696  0.2514628

 Al 
  0.7480521  0.7465026  0.9848498

 Al 
  0.5020209  0.9784800  0.4660957

 Al 
  0.5027858  0.2556841  0.7457985

 Al 
  0.7525457  0.0022982  0.7337904

 Al 
  0.7499505  0.2628298  0.5059415

 Al 
  0.4893990  0.5066494  0.5030469

 Al 
  0.4894325  0.7502327  0.7439273

 Al 
  0.7580305  0.4891639  0.7639548

 Al 
  0.7518749  0.7266583  0.4920907

