32 
charge = 0 
 Al 
  0.9667133  0.9812447  0.9957255

 Al 
  0.0162232  0.2484530  0.2574712

 Al 
  0.2531941  0.9973727  0.2378533

 Al 
  0.2580986  0.2591939  0.9912356

 Al 
  0.4871566  0.9945609  0.0084773

 Al 
  0.4905648  0.2486956  0.2392122

 Al 
  0.7584550  0.0236300  0.2448146

 Al 
  0.7521162  0.2466103  0.0066123

 Al 
  0.9911292  0.4966363  0.0087929

 Al 
  0.0002388  0.7634288  0.2462712

 Al 
  0.2322868  0.5164051  0.2783625

 Al 
  0.2285518  0.7577905  0.9922331

 Al 
  0.9882394  0.9902950  0.4920561

 Al 
  0.9961821  0.2367964  0.7619932

 Al 
  0.2593028  0.9994443  0.7514393

 Al 
  0.2593646  0.2430498  0.5137790

 Al 
  0.0131739  0.4985409  0.5459482

 Al 
  0.0078573  0.7493354  0.7539354

 Al 
  0.2587075  0.5092347  0.7676254

 Al 
  0.2397468  0.7648829  0.4894659

 Al 
  0.5004715  0.5014455  0.0009368

 Al 
  0.5217081  0.7607086  0.2254690

 Al 
  0.7788835  0.4942924  0.2503601

 Al 
  0.7481523  0.7496894  0.9875080

 Al 
  0.5024368  0.9788439  0.4657913

 Al 
  0.5014925  0.2529281  0.7453542

 Al 
  0.7464395  0.0031162  0.7355094

 Al 
  0.7510198  0.2638929  0.5044577

 Al 
  0.4920722  0.5102718  0.5027103

 Al 
  0.4886912  0.7451785  0.7459222

 Al 
  0.7586233  0.4899671  0.7638855

 Al 
  0.7527078  0.7240656  0.4887914

