32 
charge = 0 
 Al 
  0.9647802  0.9861244  0.9956079

 Al 
  0.0143087  0.2474828  0.2562237

 Al 
  0.2537944  0.9962873  0.2400426

 Al 
  0.2647344  0.2586642  0.9927120

 Al 
  0.4861888  0.9912591  0.0067645

 Al 
  0.4893235  0.2521905  0.2405623

 Al 
  0.7563487  0.0235100  0.2434459

 Al 
  0.7549626  0.2533055  0.0095057

 Al 
  0.9928989  0.5001770  0.0091901

 Al 
  0.0051025  0.7674843  0.2427095

 Al 
  0.2342966  0.5144337  0.2733342

 Al 
  0.2258626  0.7545666  0.9906614

 Al 
  0.9872939  0.9869685  0.4920264

 Al 
  0.9947899  0.2349141  0.7605403

 Al 
  0.2575058  0.9956846  0.7511893

 Al 
  0.2590540  0.2427541  0.5152282

 Al 
  0.0097334  0.5023947  0.5450856

 Al 
  0.0115242  0.7524714  0.7563598

 Al 
  0.2599178  0.5054131  0.7705633

 Al 
  0.2378607  0.7655685  0.4919472

 Al 
  0.4999010  0.4977736  0.9953851

 Al 
  0.5199941  0.7584105  0.2293426

 Al 
  0.7748057  0.4933432  0.2519417

 Al 
  0.7479555  0.7452577  0.9838461

 Al 
  0.5019145  0.9784986  0.4664744

 Al 
  0.5033365  0.2566259  0.7460200

 Al 
  0.7547089  0.0018811  0.7331828

 Al 
  0.7495607  0.2623682  0.5064267

 Al 
  0.4884375  0.5052497  0.5031199

 Al 
  0.4898408  0.7522140  0.7431897

 Al 
  0.7577075  0.4889498  0.7639387

 Al 
  0.7515531  0.7277771  0.4934347

