32 
charge = 0 
 Al 
  0.9646948  0.9868781  0.9955609

 Al 
  0.0140785  0.2473541  0.2560579

 Al 
  0.2538018  0.9961846  0.2403408

 Al 
  0.2655079  0.2585417  0.9929471

 Al 
  0.4861443  0.9908717  0.0063772

 Al 
  0.4891924  0.2527065  0.2408074

 Al 
  0.7560207  0.0234060  0.2433234

 Al 
  0.7552955  0.2541929  0.0098262

 Al 
  0.9932182  0.5006361  0.0092038

 Al 
  0.0056482  0.7679508  0.2422405

 Al 
  0.2346196  0.5141082  0.2725694

 Al 
  0.2256522  0.7541359  0.9905537

 Al 
  0.9871974  0.9866071  0.4920697

 Al 
  0.9946711  0.2346889  0.7603460

 Al 
  0.2572237  0.9952292  0.7511534

 Al 
  0.2589612  0.2427207  0.5153693

 Al 
  0.0092607  0.5028365  0.5448233

 Al 
  0.0119103  0.7529219  0.7566284

 Al 
  0.2600317  0.5048611  0.7708888

 Al 
  0.2376726  0.7656341  0.4923407

 Al 
  0.4998564  0.4973269  0.9947156

 Al 
  0.5197144  0.7579588  0.2299045

 Al 
  0.7741696  0.4932479  0.2521868

 Al 
  0.7478961  0.7446537  0.9833672

 Al 
  0.5018761  0.9785431  0.4667145

 Al 
  0.5036162  0.2570529  0.7461363

 Al 
  0.7557163  0.0016559  0.7329018

 Al 
  0.7493763  0.2621318  0.5066420

 Al 
  0.4879870  0.5045716  0.5031434

 Al 
  0.4900636  0.7531805  0.7428370

 Al 
  0.7575318  0.4888657  0.7639201

 Al 
  0.7513947  0.7283427  0.4941005

