32 
charge = 0 
 Al 
  0.9655958  0.9832199  0.9957279

 Al 
  0.0153458  0.2480249  0.2569254

 Al 
  0.2535753  0.9968331  0.2388001

 Al 
  0.2611690  0.2590317  0.9918197

 Al 
  0.4866046  0.9930263  0.0079798

 Al 
  0.4899745  0.2501448  0.2397047

 Al 
  0.7576023  0.0237117  0.2441228

 Al 
  0.7534355  0.2495508  0.0079835

 Al 
  0.9917677  0.4982006  0.0090330

 Al 
  0.0025184  0.7653173  0.2447032

 Al 
  0.2330788  0.5156428  0.2763131

 Al 
  0.2271571  0.7563871  0.9913928

 Al 
  0.9877828  0.9887122  0.4919596

 Al 
  0.9954779  0.2359413  0.7613571

 Al 
  0.2585813  0.9977377  0.7513341

 Al 
  0.2593028  0.2429088  0.5144980

 Al 
  0.0116925  0.5003440  0.5458010

 Al 
  0.0096183  0.7506522  0.7550740

 Al 
  0.2593052  0.5076283  0.7689991

 Al 
  0.2388248  0.7652109  0.4904497

 Al 
  0.5001807  0.4997810  0.9983986

 Al 
  0.5210410  0.7599253  0.2270890

 Al 
  0.7772425  0.4938369  0.2510037

 Al 
  0.7481177  0.7477786  0.9858992

 Al 
  0.5021633  0.9785568  0.4658594

 Al 
  0.5022499  0.2546384  0.7455992

 Al 
  0.7502017  0.0026669  0.7344488

 Al 
  0.7503638  0.2632753  0.5053908

 Al 
  0.4904312  0.5080912  0.5029392

 Al 
  0.4890835  0.7482092  0.7447032

 Al 
  0.7583102  0.4894399  0.7639436

 Al 
  0.7522041  0.7255755  0.4907480

