32 
charge = 0 
 Al 
  0.9694359  0.9786285  0.9955237

 Al 
  0.0177343  0.2491671  0.2583214

 Al 
  0.2521670  0.9984444  0.2363881

 Al 
  0.2526830  0.2592904  0.9905351

 Al 
  0.4884436  0.9973590  0.0084179

 Al 
  0.4916390  0.2466623  0.2387270

 Al 
  0.7596443  0.0230632  0.2462291

 Al 
  0.7497612  0.2418568  0.0040567

 Al 
  0.9905920  0.4941067  0.0081518

 Al 
  0.9961450  0.7600391  0.2488132

 Al 
  0.2313239  0.5172529  0.2811111

 Al 
  0.2314217  0.7599574  0.9940325

 Al 
  0.9891045  0.9932219  0.4925424

 Al 
  0.9975459  0.2382023  0.7630303

 Al 
  0.2602445  0.0023142  0.7515853

 Al 
  0.2592805  0.2433258  0.5123100

 Al 
  0.0154361  0.4952626  0.5454025

 Al 
  0.0045419  0.7474209  0.7519034

 Al 
  0.2575702  0.5115774  0.7652257

 Al 
  0.2415239  0.7643545  0.4882555

 Al 
  0.5010049  0.5042065  0.0053525

 Al 
  0.5224593  0.7612717  0.2231758

 Al 
  0.7810282  0.4950696  0.2494394

 Al 
  0.7480521  0.7526162  0.9900562

 Al 
  0.5030048  0.9797225  0.4664274

 Al 
  0.5004146  0.2499802  0.7451203

 Al 
  0.7399943  0.0035469  0.7373335

 Al 
  0.7521274  0.2647282  0.5027400

 Al 
  0.4948592  0.5136627  0.5021447

 Al 
  0.4884523  0.7405314  0.7480013

 Al 
  0.7588102  0.4910846  0.7637085

 Al 
  0.7535530  0.7220719  0.4859376

