32 
charge = 0 
 Al 
  0.9682342  0.9795542  0.9956326

 Al 
  0.0171353  0.2488850  0.2579971

 Al 
  0.2526311  0.9979964  0.2369462

 Al 
  0.2548550  0.2592743  0.9907678

 Al 
  0.4878830  0.9962192  0.0085751

 Al 
  0.4912046  0.2474036  0.2388681

 Al 
  0.7592062  0.0233503  0.2456326

 Al 
  0.7507104  0.2437070  0.0051037

 Al 
  0.9907232  0.4950881  0.0084427

 Al 
  0.9977947  0.7614079  0.2478231

 Al 
  0.2316482  0.5169855  0.2801322

 Al 
  0.2302151  0.7591357  0.9932689

 Al 
  0.9887493  0.9920289  0.4922986

 Al 
  0.9969878  0.2376566  0.7626256

 Al 
  0.2599129  0.0011856  0.7515333

 Al 
  0.2593362  0.2432107  0.5129313

 Al 
  0.0145797  0.4965942  0.5457378

 Al 
  0.0059032  0.7481325  0.7527202

 Al 
  0.2580367  0.5107049  0.7661811

 Al 
  0.2407901  0.7645537  0.4886652

 Al 
  0.5007920  0.5031286  0.0035865

 Al 
  0.5222217  0.7611566  0.2240124

 Al 
  0.7802745  0.4947676  0.2497822

 Al 
  0.7481127  0.7515049  0.9890760

 Al 
  0.5027660  0.9793191  0.4660660

 Al 
  0.5008143  0.2511485  0.7451871

 Al 
  0.7425536  0.0034256  0.7366096

 Al 
  0.7516893  0.2644287  0.5034404

 Al 
  0.4937553  0.5123682  0.5023972

 Al 
  0.4884820  0.7422962  0.7471722

 Al 
  0.7587879  0.4906081  0.7637889

 Al 
  0.7532152  0.7227736  0.4869969

