32 
charge = 0 
 Al 
  0.9676860  0.9800802  0.9956735

 Al 
  0.0168308  0.2487414  0.2578263

 Al 
  0.2528377  0.9977811  0.2372407

 Al 
  0.2559440  0.2592557  0.9909089

 Al 
  0.4876244  0.9956574  0.0085874

 Al 
  0.4909881  0.2478120  0.2389659

 Al 
  0.7589686  0.0234642  0.2453480

 Al 
  0.7511831  0.2446624  0.0056173

 Al 
  0.9908309  0.4955980  0.0085714

 Al 
  0.9986189  0.7620885  0.2473120

 Al 
  0.2318412  0.5168148  0.2795802

 Al 
  0.2296371  0.7586988  0.9929063

 Al 
  0.9885748  0.9914410  0.4922009

 Al 
  0.9967118  0.2373731  0.7624165

 Al 
  0.2597235  0.0006076  0.7515036

 Al 
  0.2593547  0.2431550  0.5132271

 Al 
  0.0141243  0.4972538  0.5458480

 Al 
  0.0065702  0.7485174  0.7531286

 Al 
  0.2582657  0.5102346  0.7666638

 Al 
  0.2404324  0.7646614  0.4889090

 Al 
  0.5006844  0.5025729  0.0026991

 Al 
  0.5220707  0.7610452  0.2244740

 Al 
  0.7798438  0.4946104  0.2499666

 Al 
  0.7481338  0.7509170  0.9885637

 Al 
  0.5026521  0.9791421  0.4659373

 Al 
  0.5010309  0.2517425  0.7452341

 Al 
  0.7438493  0.0033389  0.7362420

 Al 
  0.7514665  0.2642617  0.5037857

 Al 
  0.4931946  0.5116863  0.5025098

 Al 
  0.4885303  0.7432305  0.7467551

 Al 
  0.7587508  0.4903841  0.7638248

 Al 
  0.7530469  0.7231746  0.4875712

