32 
charge = 0 
 Al 
  0.9714593  0.9775754  0.9952948

 Al 
  0.0185870  0.2495755  0.2587446

 Al 
  0.2513675  0.9991424  0.2356468

 Al 
  0.2495235  0.2592706  0.9903235

 Al 
  0.4893594  0.9990731  0.0078709

 Al 
  0.4922751  0.2457638  0.2386478

 Al 
  0.7602062  0.0225014  0.2471697

 Al 
  0.7483726  0.2392839  0.0024702

 Al 
  0.9906094  0.4927541  0.0076407

 Al 
  0.9937293  0.7580256  0.2501955

 Al 
  0.2310071  0.5174657  0.2822397

 Al 
  0.2333040  0.7610292  0.9952366

 Al 
  0.9896428  0.9950002  0.4930251

 Al 
  0.9983714  0.2389411  0.7635959

 Al 
  0.2606208  0.0038983  0.7516398

 Al 
  0.2591629  0.2435065  0.5113187

 Al 
  0.0165598  0.4932825  0.5446240

 Al 
  0.0024788  0.7465138  0.7507079

 Al 
  0.2568672  0.5126912  0.7638644

 Al 
  0.2426377  0.7641095  0.4878397

 Al 
  0.5012982  0.5056915  0.0079204

 Al 
  0.5226412  0.7611950  0.2221722

 Al 
  0.7818672  0.4954656  0.2489889

 Al 
  0.7479172  0.7540852  0.9913779

 Al 
  0.5033773  0.9804317  0.4672058

 Al 
  0.4998973  0.2483231  0.7450844

 Al 
  0.7363249  0.0036013  0.7383682

 Al 
  0.7527499  0.2650809  0.5016955

 Al 
  0.4964408  0.5153866  0.5017066

 Al 
  0.4885785  0.7381949  0.7492117

 Al 
  0.7587124  0.4918494  0.7635674

 Al 
  0.7540530  0.7212886  0.4846022

