32 
charge = 0 
 Al 
  0.9795431  0.9768860  0.9941550

 Al 
  0.0207267  0.2507760  0.2595354

 Al 
  0.2481127  0.0015556  0.2341419

 Al 
  0.2405339  0.2589488  0.9908297

 Al 
  0.4926687  0.0044837  0.0039763

 Al 
  0.4941463  0.2445931  0.2394250

 Al 
  0.7613781  0.0196933  0.2504678

 Al 
  0.7443963  0.2327113  0.9973962

 Al 
  0.9922504  0.4895438  0.0054539

 Al 
  0.9869400  0.7521001  0.2538006

 Al 
  0.2314130  0.5166873  0.2830763

 Al 
  0.2396305  0.7629610  0.9992896

 Al 
  0.9914410  0.0004010  0.4955386

 Al 
  0.0006015  0.2405240  0.7649386

 Al 
  0.2608052  0.0078486  0.7515358

 Al 
  0.2587657  0.2441154  0.5076828

 Al 
  0.0186921  0.4872915  0.5399881

 Al 
  0.9958492  0.7448183  0.7471647

 Al 
  0.2546767  0.5147431  0.7602272

 Al 
  0.2461215  0.7639300  0.4880959

 Al 
  0.5019207  0.5090602  0.0153854

 Al 
  0.5217341  0.7594154  0.2212601

 Al 
  0.7821519  0.4959915  0.2479060

 Al 
  0.7473009  0.7571927  0.9943295

 Al 
  0.5046112  0.9834229  0.4713863

 Al 
  0.4987699  0.2441723  0.7453431

 Al 
  0.7262227  0.0026830  0.7410957

 Al 
  0.7543735  0.2654287  0.4985137

 Al 
  0.5008316  0.5190387  0.4997463

 Al 
  0.4903681  0.7332991  0.7528637

 Al 
  0.7573536  0.4946290  0.7629288

 Al 
  0.7556680  0.7210547  0.4825244

