32 
charge = 0 
 Al 
  0.9814081  0.9772090  0.9938765

 Al 
  0.0210101  0.2509950  0.2595800

 Al 
  0.2473702  0.0020605  0.2340095

 Al 
  0.2390067  0.2588449  0.9911601

 Al 
  0.4933493  0.0055084  0.0028971

 Al 
  0.4944904  0.2446624  0.2397579

 Al 
  0.7615106  0.0189619  0.2511534

 Al 
  0.7437206  0.2317274  0.9964185

 Al 
  0.9928320  0.4891392  0.0049366

 Al 
  0.9858534  0.7510606  0.2543587

 Al 
  0.2317645  0.5162950  0.2827360

 Al 
  0.2408928  0.7630464  0.0000854

 Al 
  0.9918234  0.0013861  0.4962081

 Al 
  0.0009245  0.2406787  0.7650859

 Al 
  0.2606356  0.0083857  0.7514541

 Al 
  0.2587162  0.2442367  0.5068883

 Al 
  0.0188270  0.4862061  0.5386998

 Al 
  0.9945696  0.7446896  0.7465175

 Al 
  0.2542609  0.5148904  0.7596480

 Al 
  0.2467662  0.7640154  0.4884214

 Al 
  0.5019826  0.5094228  0.0167009

 Al 
  0.5212811  0.7588783  0.2215447

 Al 
  0.7817559  0.4959210  0.2477278

 Al 
  0.7471746  0.7575306  0.9946822

 Al 
  0.5048574  0.9841295  0.4724840

 Al 
  0.4986238  0.2436315  0.7454346

 Al 
  0.7245631  0.0022858  0.7415004

 Al 
  0.7546087  0.2653532  0.4979357

 Al 
  0.5015742  0.5194136  0.4992500

 Al 
  0.4909732  0.7327917  0.7535469

 Al 
  0.7568907  0.4952168  0.7627667

 Al 
  0.7559824  0.7214284  0.4825318

