32 
charge = 0 
 Al 
  0.9760816  0.9766769  0.9946661

 Al 
  0.0200139  0.2503218  0.2593349

 Al 
  0.2495050  0.0005742  0.2345688

 Al 
  0.2438345  0.2591171  0.9904015

 Al 
  0.4913222  0.0023848  0.0058574

 Al 
  0.4934409  0.2447428  0.2389337

 Al 
  0.7610205  0.0209792  0.2491275

 Al 
  0.7458579  0.2349859  0.9993775

 Al 
  0.9913296  0.4905859  0.0064081

 Al 
  0.9893879  0.7543129  0.2525345

 Al 
  0.2309836  0.5172491  0.2832583

 Al 
  0.2371133  0.7624932  0.9976845

 Al 
  0.9907133  0.9983491  0.4943716

 Al 
  0.9998305  0.2400574  0.7645141

 Al 
  0.2609314  0.0065269  0.7516348

 Al 
  0.2589030  0.2438741  0.5091951

 Al 
  0.0181365  0.4895624  0.5421984

 Al 
  0.9984419  0.7452713  0.7485050

 Al 
  0.2555232  0.5142047  0.7615168

 Al 
  0.2447849  0.7638793  0.4877098

 Al 
  0.5017400  0.5080231  0.0126009

 Al 
  0.5223702  0.7603423  0.2211648

 Al 
  0.7824910  0.4959482  0.2482847

 Al 
  0.7475595  0.7562584  0.9934050

 Al 
  0.5041211  0.9821246  0.4694520

 Al 
  0.4991288  0.2455497  0.7451884

 Al 
  0.7298698  0.0032548  0.7401490

 Al 
  0.7538142  0.2654374  0.4997215

 Al 
  0.4992302  0.5179533  0.5006262

 Al 
  0.4894065  0.7347520  0.7514653

 Al 
  0.7580825  0.4934867  0.7632172

 Al 
  0.7550307  0.7207217  0.4829254

