32 
charge = 0 
 Al 
  0.9844030  0.9779528  0.9934347

 Al 
  0.0213405  0.2513168  0.2595763

 Al 
  0.2461908  0.0028427  0.2339104

 Al 
  0.2368459  0.2586592  0.9918098

 Al 
  0.4943815  0.0070294  0.0011175

 Al 
  0.4950114  0.2449384  0.2403718

 Al 
  0.7616578  0.0177429  0.2522078

 Al 
  0.7427677  0.2304205  0.9949569

 Al 
  0.9938530  0.4886726  0.0041075

 Al 
  0.9843980  0.7495693  0.2551136

 Al 
  0.2324749  0.5155760  0.2819130

 Al 
  0.2428098  0.7629882  0.0012821

 Al 
  0.9924348  0.0028365  0.4973269

 Al 
  0.0013254  0.2408210  0.7652183

 Al 
  0.2602396  0.0090404  0.7512895

 Al 
  0.2586741  0.2444174  0.5056334

 Al 
  0.0188555  0.4846258  0.5365168

 Al 
  0.9926514  0.7446117  0.7455609

 Al 
  0.2536347  0.5149708  0.7588436

 Al 
  0.2477105  0.7642146  0.4890723

 Al 
  0.5020407  0.5097693  0.0185956

 Al 
  0.5204284  0.7580046  0.2222897

 Al 
  0.7808636  0.4956883  0.2474593

 Al 
  0.7469989  0.7578969  0.9950943

 Al 
  0.5052361  0.9852755  0.4743094

 Al 
  0.4984357  0.2430127  0.7455831

 Al 
  0.7222514  0.0015358  0.7420239

 Al 
  0.7549045  0.2651416  0.4970942

 Al 
  0.5026335  0.5197762  0.4984246

 Al 
  0.4920437  0.7322769  0.7545666

 Al 
  0.7560554  0.4961227  0.7624957

 Al 
  0.7564502  0.7222563  0.4828028

