32 
charge = 0 
 Al 
  0.9912034  0.9803525  0.9924645

 Al 
  0.0216004  0.2519430  0.2593065

 Al 
  0.2435894  0.0045109  0.2340961

 Al 
  0.2329563  0.2581506  0.9937058

 Al 
  0.4964519  0.0100230  0.9970336

 Al 
  0.4961326  0.2460658  0.2420462

 Al 
  0.7617618  0.0148050  0.2544206

 Al 
  0.7410908  0.2283860  0.9920190

 Al 
  0.9964135  0.4882914  0.0022487

 Al 
  0.9821853  0.7467910  0.2563301

 Al 
  0.2346319  0.5137072  0.2790802

 Al 
  0.2467910  0.7621764  0.0037065

 Al 
  0.9938617  0.0056953  0.5000297

 Al 
  0.0018044  0.2407863  0.7650834

 Al 
  0.2588746  0.0098077  0.7507982

 Al 
  0.2587310  0.2447725  0.5028538

 Al 
  0.0182677  0.4816073  0.5311581

 Al 
  0.9887840  0.7448555  0.7436538

 Al 
  0.2523452  0.5146416  0.7573920

 Al 
  0.2495483  0.7648483  0.4909509

 Al 
  0.5020519  0.5096951  0.0221338

 Al 
  0.5180548  0.7561197  0.2250309

 Al 
  0.7779169  0.4947218  0.2468690

 Al 
  0.7467304  0.7582013  0.9955423

 Al 
  0.5060282  0.9879461  0.4786632

 Al 
  0.4981313  0.2425449  0.7458764

 Al 
  0.7182281  0.9994134  0.7427603

 Al 
  0.7552621  0.2643260  0.4955002

 Al 
  0.5046223  0.5198047  0.4964482

 Al 
  0.4947923  0.7320640  0.7566309

 Al 
  0.7538179  0.4980224  0.7618484

 Al 
  0.7573387  0.7249245  0.4843201

