32 
charge = 0 
 Al 
  0.9924373  0.9808648  0.9922937

 Al 
  0.0215806  0.2520445  0.2592236

 Al 
  0.2431315  0.0047993  0.2341815

 Al 
  0.2323722  0.2580442  0.9940993

 Al 
  0.4967861  0.0105094  0.9963009

 Al 
  0.4963356  0.2463207  0.2423853

 Al 
  0.7617531  0.0142505  0.2547980

 Al 
  0.7408495  0.2281248  0.9915314

 Al 
  0.9968999  0.4883075  0.0019157

 Al 
  0.9819217  0.7463529  0.2564923

 Al 
  0.2350923  0.5133483  0.2784516

 Al 
  0.2474754  0.7619487  0.0041124

 Al 
  0.9941290  0.0061705  0.5005408

 Al 
  0.0018365  0.2407406  0.7650005

 Al 
  0.2585689  0.0098621  0.7506955

 Al 
  0.2587644  0.2448295  0.5023576

 Al 
  0.0180857  0.4811259  0.5301346

 Al 
  0.9881392  0.7449495  0.7433370

 Al 
  0.2521249  0.5145240  0.7571642

 Al 
  0.2498478  0.7649795  0.4913358

 Al 
  0.5020395  0.5095763  0.0226820

 Al 
  0.5175721  0.7558029  0.2256609

 Al 
  0.7772685  0.4944928  0.2467588

 Al 
  0.7467031  0.7582038  0.9955745

 Al 
  0.5061643  0.9884449  0.4794787

 Al 
  0.4980855  0.2425783  0.7459185

 Al 
  0.7176452  0.9989765  0.7428395

 Al 
  0.7552856  0.2641330  0.4952490

 Al 
  0.5049391  0.5197181  0.4960782

 Al 
  0.4953257  0.7321284  0.7569799

 Al 
  0.7533662  0.4983454  0.7617259

 Al 
  0.7574749  0.7255037  0.4847013

