32 
charge = 0 
 Al 
  0.9865477  0.9786186  0.9931241

 Al 
  0.0214915  0.2515284  0.2595268

 Al 
  0.2453579  0.0033835  0.2339129

 Al 
  0.2354834  0.2585120  0.9923506

 Al 
  0.4950745  0.0080355  0.9998267

 Al 
  0.4953690  0.2452317  0.2408618

 Al 
  0.7617210  0.0168395  0.2529305

 Al 
  0.7421712  0.2296557  0.9939793

 Al 
  0.9946327  0.4884610  0.0035172

 Al 
  0.9835491  0.7486139  0.2555628

 Al 
  0.2330800  0.5150129  0.2811470

 Al 
  0.2441129  0.7628236  0.0020853

 Al 
  0.9928766  0.0037919  0.4981573

 Al 
  0.0015346  0.2408557  0.7652381

 Al 
  0.2598720  0.0093770  0.7511497

 Al 
  0.2586691  0.2445386  0.5047473

 Al 
  0.0187565  0.4835986  0.5348819

 Al 
  0.9913668  0.7446327  0.7449260

 Al 
  0.2532115  0.5149324  0.7583412

 Al 
  0.2483293  0.7643929  0.4896144

 Al 
  0.5020605  0.5098621  0.0198146

 Al 
  0.5197379  0.7573882  0.2230100

 Al 
  0.7800604  0.4954433  0.2472736

 Al 
  0.7468937  0.7580578  0.9952948

 Al 
  0.5054948  0.9861046  0.4756534

 Al 
  0.4983268  0.2427367  0.7456846

 Al 
  0.7208195  0.0009232  0.7423160

 Al 
  0.7550616  0.2649312  0.4965484

 Al 
  0.5033130  0.5198889  0.4978145

 Al 
  0.4928692  0.7320888  0.7552485

 Al 
  0.7553982  0.4967452  0.7622964

 Al 
  0.7567559  0.7229927  0.4831617

