32 
charge = 0 
 Al 
  0.9936946  0.9814081  0.9921204

 Al 
  0.0215385  0.2521435  0.2591320

 Al 
  0.2426712  0.0050876  0.2342830

 Al 
  0.2318115  0.2579291  0.9945126

 Al 
  0.4971128  0.0109883  0.9955609

 Al 
  0.4965447  0.2465918  0.2427417

 Al 
  0.7617358  0.0136788  0.2551767

 Al 
  0.7406230  0.2278885  0.9910462

 Al 
  0.9973974  0.4883483  0.0015779

 Al 
  0.9816915  0.7459247  0.2566420

 Al 
  0.2355824  0.5129796  0.2777808

 Al 
  0.2481622  0.7616925  0.0045171

 Al 
  0.9944050  0.0066420  0.5010680

 Al 
  0.0018551  0.2406849  0.7648978

 Al 
  0.2582434  0.0098968  0.7505878

 Al 
  0.2588040  0.2448839  0.5018551

 Al 
  0.0178778  0.4806557  0.5290765

 Al 
  0.9874981  0.7450559  0.7430214

 Al 
  0.2519046  0.5143904  0.7569403

 Al 
  0.2501448  0.7651156  0.4917380

 Al 
  0.5020234  0.5094265  0.0232154

 Al 
  0.5170660  0.7554923  0.2263403

 Al 
  0.7765742  0.4942453  0.2466462

 Al 
  0.7466809  0.7581939  0.9955955

 Al 
  0.5062992  0.9889585  0.4803178

 Al 
  0.4980397  0.2426464  0.7459569

 Al 
  0.7170932  0.9985162  0.7429038

 Al 
  0.7552968  0.2639238  0.4950052

 Al 
  0.5052510  0.5196055  0.4956982

 Al 
  0.4958764  0.7322187  0.7573264

 Al 
  0.7528947  0.4986671  0.7616009

 Al 
  0.7576048  0.7261188  0.4851195

