32 
charge = 0 
 Al 
  0.0062683  0.9877976  0.9904324

 Al 
  0.0197156  0.2529491  0.2577199

 Al 
  0.2384783  0.0076605  0.2362074

 Al 
  0.2281286  0.2564328  0.9992352

 Al 
  0.4994579  0.0149027  0.9886899

 Al 
  0.4988454  0.2497240  0.2469011

 Al 
  0.7611220  0.0075330  0.2585887

 Al 
  0.7394881  0.2270370  0.9867804

 Al 
  0.0024157  0.4901898  0.9982006

 Al 
  0.9814923  0.7422937  0.2573536

 Al 
  0.2416737  0.5092285  0.2693976

 Al 
  0.2547238  0.7579637  0.0081407

 Al 
  0.9974172  0.0109673  0.5066952

 Al 
  0.0011683  0.2397406  0.7628471

 Al 
  0.2541990  0.0091307  0.7493280

 Al 
  0.2596443  0.2453171  0.4969544

 Al 
  0.0147369  0.4769219  0.5175350

 Al 
  0.9818771  0.7467613  0.7402641

 Al 
  0.2498379  0.5122853  0.7549057

 Al 
  0.2527573  0.7665091  0.4962898

 Al 
  0.5016806  0.5063549  0.0271311

 Al 
  0.5112457  0.7530815  0.2352396

 Al 
  0.7678667  0.4910450  0.2453777

 Al 
  0.7468405  0.7575924  0.9954705

 Al 
  0.5074514  0.9945535  0.4891082

 Al 
  0.4975174  0.2452143  0.7460472

 Al 
  0.7138731  0.9931649  0.7427801

 Al 
  0.7546990  0.2610180  0.4931278

 Al 
  0.5079377  0.5172157  0.4917739

 Al 
  0.5016781  0.7342904  0.7604945

 Al 
  0.7474296  0.5014220  0.7602297

 Al 
  0.7583288  0.7337025  0.4907579

