32 
charge = 0 
 Al 
  0.0014232  0.9851332  0.9910735

 Al 
  0.0207663  0.2526793  0.2583709

 Al 
  0.2399832  0.0067509  0.2352458

 Al 
  0.2291062  0.2570974  0.9973009

 Al 
  0.4987835  0.0135909  0.9911935

 Al 
  0.4978937  0.2484506  0.2451562

 Al 
  0.7614623  0.0100069  0.2573598

 Al 
  0.7396577  0.2270333  0.9883038

 Al 
  0.0004950  0.4891466  0.9995075

 Al 
  0.9811061  0.7435783  0.2572447

 Al 
  0.2390525  0.5106777  0.2729964

 Al 
  0.2522400  0.7596604  0.0068301

 Al 
  0.9961945  0.0093708  0.5044466

 Al 
  0.0016299  0.2401700  0.7638731

 Al 
  0.2559205  0.0096579  0.7498527

 Al 
  0.2592174  0.2451723  0.4988144

 Al 
  0.0161811  0.4781409  0.5222192

 Al 
  0.9838684  0.7459730  0.7412405

 Al 
  0.2506064  0.5132605  0.7556717

 Al 
  0.2518180  0.7659844  0.4944223

 Al 
  0.5018514  0.5078820  0.0259430

 Al 
  0.5136565  0.7538364  0.2313338

 Al 
  0.7716215  0.4924286  0.2459012

 Al 
  0.7466908  0.7579204  0.9955596

 Al 
  0.5070615  0.9922751  0.4856307

 Al 
  0.4977464  0.2437961  0.7460856

 Al 
  0.7145871  0.9953827  0.7429929

 Al 
  0.7550975  0.2623298  0.4937268

 Al 
  0.5069836  0.5184162  0.4933073

 Al 
  0.4993998  0.7332620  0.7593362

 Al 
  0.7497042  0.5004752  0.7607866

 Al 
  0.7581927  0.7304614  0.4882741

