32 
charge = 0 
 Al 
  0.0151861  0.9936117  0.9893842

 Al 
  0.0154213  0.2532239  0.2558995

 Al 
  0.2364957  0.0087360  0.2394547

 Al 
  0.2289218  0.2547374  0.0031830

 Al 
  0.4992463  0.0162764  0.9851121

 Al 
  0.5011460  0.2520618  0.2510086

 Al 
  0.7598498  0.0022090  0.2603188

 Al 
  0.7407901  0.2287820  0.9845131

 Al 
  0.0056730  0.4940820  0.9956190

 Al 
  0.9845750  0.7401168  0.2568091

 Al 
  0.2480533  0.5065133  0.2607903

 Al 
  0.2593807  0.7535023  0.0101864

 Al 
  0.0001139  0.0137221  0.5111876

 Al 
  0.9992154  0.2390043  0.7596010

 Al 
  0.2503911  0.0070504  0.7481263

 Al 
  0.2609883  0.2455881  0.4936179

 Al 
  0.0108448  0.4759269  0.5072843

 Al 
  0.9791929  0.7487934  0.7389560

 Al 
  0.2485384  0.5096047  0.7532214

 Al 
  0.2542696  0.7671823  0.5003750

 Al 
  0.5011930  0.5018254  0.0274318

 Al 
  0.5059292  0.7527202  0.2450770

 Al 
  0.7587916  0.4879041  0.2441649

 Al 
  0.7476165  0.7566036  0.9956425

 Al 
  0.5076630  0.9997290  0.4960175

 Al 
  0.4968145  0.2502067  0.7455398

 Al 
  0.7156713  0.9885538  0.7417294

 Al 
  0.7529491  0.2574019  0.4926910

 Al 
  0.5094141  0.5134647  0.4889770

 Al 
  0.5057027  0.7371034  0.7623855

 Al 
  0.7423234  0.5023538  0.7589624

 Al 
  0.7576358  0.7414076  0.4967341

