32 
charge = 0 
 Al 
  0.0084526  0.9890921  0.9901502

 Al 
  0.0190337  0.2530506  0.2573722

 Al 
  0.2378669  0.0080206  0.2367692

 Al 
  0.2279244  0.2560851  0.0001510

 Al 
  0.4996300  0.0153940  0.9876528

 Al 
  0.4993193  0.2503106  0.2477674

 Al 
  0.7609104  0.0063524  0.2590948

 Al 
  0.7395599  0.2272041  0.9861480

 Al 
  0.0032610  0.4908420  0.9975991

 Al 
  0.9818969  0.7417467  0.2573276

 Al 
  0.2430003  0.5085763  0.2675882

 Al 
  0.2558401  0.7570702  0.0086939

 Al 
  0.9980063  0.0116653  0.5077471

 Al 
  0.0008564  0.2395352  0.7622581

 Al 
  0.2533526  0.0087842  0.7490706

 Al 
  0.2598918  0.2453752  0.4961264

 Al 
  0.0139684  0.4764863  0.5152827

 Al 
  0.9810678  0.7471759  0.7398681

 Al 
  0.2495037  0.5117630  0.7545480

 Al 
  0.2531558  0.7667269  0.4971883

 Al 
  0.5015866  0.5054985  0.0274962

 Al 
  0.5100750  0.7528365  0.2372482

 Al 
  0.7659695  0.4903557  0.2451203

 Al 
  0.7469556  0.7574043  0.9954396

 Al 
  0.5075900  0.9956611  0.4907220

 Al 
  0.4973912  0.2460782  0.7459891

 Al 
  0.7138335  0.9921006  0.7426105

 Al 
  0.7544280  0.2603188  0.4929199

 Al 
  0.5083375  0.5165314  0.4910784

 Al 
  0.5027053  0.7348510  0.7609908

 Al 
  0.7463170  0.5017796  0.7599599

 Al 
  0.7583078  0.7353275  0.4920214

