32 
charge = 0 
 Al 
  0.0122234  0.9914992  0.9896899

 Al 
  0.0173952  0.2531830  0.2566507

 Al 
  0.2369685  0.0085219  0.2380278

 Al 
  0.2280778  0.2553945  0.0018031

 Al 
  0.4996423  0.0160425  0.9860650

 Al 
  0.5002488  0.2513180  0.2494406

 Al 
  0.7604203  0.0041632  0.2598683

 Al 
  0.7399980  0.2278278  0.9851567

 Al 
  0.0046619  0.4923519  0.9965249

 Al 
  0.9830503  0.7408321  0.2571395

 Al 
  0.2455943  0.5074415  0.2640822

 Al 
  0.2577892  0.7552683  0.0095800

 Al 
  0.9991114  0.0128360  0.5096319

 Al 
  0.0001040  0.2391961  0.7609797

 Al 
  0.2517697  0.0079736  0.7485818

 Al 
  0.2604289  0.2454804  0.4947144

 Al 
  0.0124041  0.4759764  0.5110737

 Al 
  0.9798611  0.7480026  0.7392802

 Al 
  0.2489481  0.5106901  0.7538736

 Al 
  0.2538043  0.7670425  0.4988652

 Al 
  0.5013898  0.5036892  0.0277610

 Al 
  0.5078857  0.7526137  0.2412294

 Al 
  0.7622754  0.4890550  0.2446265

 Al 
  0.7472501  0.7570096  0.9954619

 Al 
  0.5077273  0.9977687  0.4936055

 Al 
  0.4971177  0.2480298  0.7458022

 Al 
  0.7143718  0.9901651  0.7421935

 Al 
  0.7537597  0.2588770  0.4926872

 Al 
  0.5089773  0.5150525  0.4898842

 Al 
  0.5044416  0.7359908  0.7618026

 Al 
  0.7442169  0.5022363  0.7594463

 Al 
  0.7580850  0.7384696  0.4944706

