32 
charge = 0 
 Al 
  0.0163878  0.9945547  0.9892938

 Al 
  0.0143136  0.2532115  0.2555059

 Al 
  0.2364079  0.0087384  0.2402332

 Al 
  0.2295827  0.2544292  0.0037733

 Al 
  0.4989122  0.0162541  0.9848559

 Al 
  0.5015853  0.2523291  0.2517561

 Al 
  0.7595342  0.0013056  0.2604302

 Al 
  0.7413049  0.2293698  0.9843114

 Al 
  0.0060430  0.4950188  0.9952205

 Al 
  0.9854549  0.7398161  0.2566012

 Al 
  0.2492302  0.5061074  0.2592211

 Al 
  0.2600639  0.7526397  0.0103930

 Al 
  0.0005817  0.0140686  0.5118422

 Al 
  0.9987290  0.2389807  0.7588770

 Al 
  0.2497847  0.0065541  0.7479073

 Al 
  0.2612668  0.2456524  0.4931748

 Al 
  0.0100676  0.4760643  0.5055270

 Al 
  0.9790518  0.7491708  0.7388879

 Al 
  0.2483825  0.5090577  0.7528897

 Al 
  0.2544441  0.7671848  0.5010779

 Al 
  0.5010952  0.5008849  0.0270544

 Al 
  0.5050356  0.7528835  0.2469482

 Al 
  0.7571321  0.4873917  0.2439421

 Al 
  0.7478219  0.7563982  0.9958096

 Al 
  0.5075504  0.0006646  0.4970645

 Al 
  0.4966524  0.2513638  0.7453851

 Al 
  0.7165883  0.9878806  0.7414967

 Al 
  0.7524949  0.2566494  0.4927751

 Al 
  0.5095651  0.5126355  0.4886342

 Al 
  0.5061532  0.7376442  0.7625996

 Al 
  0.7414522  0.5022920  0.7587248

 Al 
  0.7573301  0.7428023  0.4977848

