32 
charge = 0 
 Al 
  0.0186761  0.9966239  0.9892666

 Al 
  0.0111702  0.2530815  0.2544354

 Al 
  0.2365885  0.0084612  0.2424014

 Al 
  0.2318920  0.2537337  0.0049973

 Al 
  0.4977353  0.0158408  0.9847891

 Al 
  0.5026756  0.2526917  0.2535320

 Al 
  0.7586493  0.9991894  0.2603906

 Al 
  0.7429137  0.2311457  0.9841245

 Al 
  0.0066210  0.4975620  0.9943505

 Al 
  0.9879771  0.7391948  0.2559762

 Al 
  0.2520494  0.5051903  0.2554638

 Al 
  0.2615106  0.7505322  0.0106641

 Al 
  0.0016856  0.0146837  0.5131256

 Al 
  0.9974011  0.2391738  0.7569539

 Al 
  0.2485063  0.0052139  0.7473739

 Al 
  0.2619227  0.2458777  0.4923234

 Al 
  0.0081110  0.4768588  0.5014232

 Al 
  0.9792337  0.7500631  0.7389708

 Al 
  0.2481078  0.5076469  0.7519974

 Al 
  0.2547312  0.7669781  0.5027424

 Al 
  0.5008613  0.4984926  0.0255012

 Al 
  0.5030060  0.7535877  0.2515333

 Al 
  0.7531669  0.4862989  0.2433964

 Al 
  0.7483936  0.7558698  0.9964940

 Al 
  0.5070232  0.0029182  0.4993156

 Al 
  0.4962143  0.2544602  0.7449520

 Al 
  0.7196290  0.9865873  0.7409621

 Al 
  0.7512227  0.2547015  0.4932256

 Al 
  0.5097594  0.5104376  0.4880922

 Al 
  0.5067695  0.7389721  0.7629202

 Al 
  0.7394708  0.5018044  0.7581172

 Al 
  0.7563264  0.7461252  0.5001856

