32 
charge = 0 
 Al 
  0.0193332  0.9973479  0.9893421

 Al 
  0.0097532  0.2529875  0.2539552

 Al 
  0.2368125  0.0082372  0.2433704

 Al 
  0.2330739  0.2534887  0.0053970

 Al 
  0.4971412  0.0155401  0.9849760

 Al 
  0.5031149  0.2527127  0.2542114

 Al 
  0.7582521  0.9983763  0.2602520

 Al 
  0.7436822  0.2319836  0.9841741

 Al 
  0.0067237  0.4986610  0.9940436

 Al 
  0.9891169  0.7389894  0.2556878

 Al 
  0.2531397  0.5048389  0.2540048

 Al 
  0.2620044  0.7497030  0.0106814

 Al 
  0.0021113  0.0148334  0.5134981

 Al 
  0.9968269  0.2393681  0.7561296

 Al 
  0.2480892  0.0046359  0.7471598

 Al 
  0.2621566  0.2460064  0.4920722

 Al 
  0.0073090  0.4773576  0.4998626

 Al 
  0.9795196  0.7504010  0.7391033

 Al 
  0.2480360  0.5070541  0.7515989

 Al 
  0.2547931  0.7668061  0.5033897

 Al 
  0.5007722  0.4975125  0.0246275

 Al 
  0.5022623  0.7539825  0.2533563

 Al 
  0.7516361  0.4859363  0.2431748

 Al 
  0.7486436  0.7556482  0.9968888

 Al 
  0.5067076  0.0037993  0.5001027

 Al 
  0.4960249  0.2557831  0.7447676

 Al 
  0.7211462  0.9862296  0.7407814

 Al 
  0.7506571  0.2538859  0.4935040

 Al 
  0.5097681  0.5095008  0.4880031

 Al 
  0.5068190  0.7395055  0.7629672

 Al 
  0.7387468  0.5014789  0.7578573

 Al 
  0.7558252  0.7474098  0.5010606

