32 
charge = 0 
 Al 
  0.0206475  0.0002302  0.9905883

 Al 
  0.0012846  0.2520828  0.2508799

 Al 
  0.2391478  0.0061606  0.2491844

 Al 
  0.2410537  0.2525754  0.0066940

 Al 
  0.4934335  0.0130204  0.9875377

 Al 
  0.5053240  0.2516398  0.2572744

 Al 
  0.7558450  0.9943728  0.2584946

 Al 
  0.7484889  0.2372172  0.9854698

 Al 
  0.0062744  0.5047374  0.9927355

 Al 
  0.9959408  0.7383533  0.2540097

 Al 
  0.2583053  0.5028971  0.2470051

 Al 
  0.2639102  0.7457168  0.0100181

 Al 
  0.0041755  0.0147146  0.5140018

 Al 
  0.9937107  0.2415895  0.7515024

 Al 
  0.2468356  0.0014207  0.7461116

 Al 
  0.2627989  0.2472031  0.4914559

 Al 
  0.0030135  0.4814291  0.4924781

 Al 
  0.9828486  0.7518898  0.7405710

 Al 
  0.2478776  0.5037189  0.7490669

 Al 
  0.2546520  0.7650574  0.5066581

 Al 
  0.5004319  0.4923432  0.0179286

 Al 
  0.4990409  0.7568660  0.2625340

 Al 
  0.7443443  0.4848683  0.2420511

 Al 
  0.7499864  0.7543896  0.0000235

 Al 
  0.5041842  0.0080244  0.5034429

 Al 
  0.4949644  0.2629969  0.7439112

 Al 
  0.7312324  0.9859413  0.7404757

 Al 
  0.7474061  0.2494716  0.4957700

 Al 
  0.5091963  0.5042745  0.4887419

 Al 
  0.5054515  0.7423816  0.7624585

 Al 
  0.7357482  0.4988812  0.7562695

 Al 
  0.7524442  0.7535332  0.5046569

