32 
charge = 0 
 Al 
  0.0205856  0.9994889  0.9900549

 Al 
  0.0040394  0.2524343  0.2519318

 Al 
  0.2382481  0.0069452  0.2472823

 Al 
  0.2383360  0.2527919  0.0064279

 Al 
  0.4946315  0.0139387  0.9865056

 Al 
  0.5046681  0.2521756  0.2564304

 Al 
  0.7566370  0.9955646  0.2592038

 Al 
  0.7469024  0.2354859  0.9849005

 Al 
  0.0065677  0.5028439  0.9930956

 Al 
  0.9937119  0.7384647  0.2545431

 Al 
  0.2568202  0.5035332  0.2490347

 Al 
  0.2634337  0.7468677  0.0103448

 Al 
  0.0035679  0.0149139  0.5141082

 Al 
  0.9946636  0.2406886  0.7529677

 Al 
  0.2470608  0.0024256  0.7464148

 Al 
  0.2627320  0.2467254  0.4915326

 Al 
  0.0043513  0.4799379  0.4946166

 Al 
  0.9815170  0.7514863  0.7399968

 Al 
  0.2479048  0.5047881  0.7499295

 Al 
  0.2547770  0.7657467  0.5056680

 Al 
  0.5005099  0.4939285  0.0203468

 Al 
  0.4999208  0.7558574  0.2597854

 Al 
  0.7464531  0.4850428  0.2423828

 Al 
  0.7495805  0.7547968  0.9988837

 Al 
  0.5051000  0.0068054  0.5025184

 Al 
  0.4953010  0.2607668  0.7441364

 Al 
  0.7278080  0.9857470  0.7404287

 Al 
  0.7484394  0.2508403  0.4949384

 Al 
  0.5094785  0.5059242  0.4883075

 Al 
  0.5061284  0.7414720  0.7627444

 Al 
  0.7365217  0.4998069  0.7568078

 Al 
  0.7536025  0.7517635  0.5037275

