32 
charge = 0 
 Al 
  0.0206364  0.9997475  0.9902183

 Al 
  0.0031372  0.2523254  0.2515940

 Al 
  0.2385315  0.0066977  0.2479048

 Al 
  0.2392171  0.2527140  0.0065294

 Al 
  0.4942354  0.0136454  0.9868274

 Al 
  0.5048884  0.2520185  0.2567212

 Al 
  0.7563784  0.9951661  0.2589835

 Al 
  0.7474209  0.2360514  0.9850750

 Al 
  0.0064836  0.5034726  0.9929731

 Al 
  0.9944409  0.7384189  0.2543674

 Al 
  0.2573239  0.5033266  0.2483479

 Al 
  0.2636020  0.7464767  0.0102483

 Al 
  0.0037721  0.0148644  0.5140983

 Al 
  0.9943443  0.2409658  0.7524850

 Al 
  0.2469704  0.0020927  0.7463108

 Al 
  0.2627692  0.2468714  0.4914967

 Al 
  0.0039095  0.4804119  0.4938939

 Al 
  0.9819303  0.7516262  0.7401775

 Al 
  0.2478961  0.5044379  0.7496510

 Al 
  0.2547423  0.7655326  0.5059972

 Al 
  0.5004802  0.4934001  0.0195782

 Al 
  0.4996188  0.7561816  0.2607049

 Al 
  0.7457391  0.4849698  0.2422702

 Al 
  0.7497166  0.7546631  0.9992463

 Al 
  0.5048092  0.0072187  0.5028328

 Al 
  0.4951896  0.2615093  0.7440560

 Al 
  0.7289181  0.9857841  0.7404275

 Al 
  0.7480991  0.2503861  0.4952020

 Al 
  0.5093956  0.5053797  0.4884313

 Al 
  0.5059254  0.7417702  0.7626615

 Al 
  0.7362494  0.4995087  0.7566346

 Al 
  0.7532288  0.7523625  0.5040530

