32 
charge = 0 
 Al 
  0.0202428  0.9986436  0.9896602

 Al 
  0.0066271  0.2527164  0.2528711

 Al 
  0.2375130  0.0075962  0.2455064

 Al 
  0.2358757  0.2530580  0.0060554

 Al 
  0.4957762  0.0147258  0.9856901

 Al 
  0.5039998  0.2525259  0.2555133

 Al 
  0.7573722  0.9967675  0.2597594

 Al 
  0.7454272  0.2338807  0.9844834

 Al 
  0.0067299  0.5009950  0.9934805

 Al 
  0.9916291  0.7386503  0.2550567

 Al 
  0.2552720  0.5041161  0.2511373

 Al 
  0.2628756  0.7480669  0.0105638

 Al 
  0.0029479  0.0149683  0.5139857

 Al 
  0.9956128  0.2399918  0.7543748

 Al 
  0.2474172  0.0034045  0.7467328

 Al 
  0.2625439  0.2463566  0.4917021

 Al 
  0.0056507  0.4786731  0.4968281

 Al 
  0.9804688  0.7510420  0.7395339

 Al 
  0.2479444  0.5058005  0.7507029

 Al 
  0.2548290  0.7662925  0.5046854

 Al 
  0.5006101  0.4954916  0.0224197

 Al 
  0.5008762  0.7549639  0.2570195

 Al 
  0.7486399  0.4853497  0.2427244

 Al 
  0.7491708  0.7551780  0.9979098

 Al 
  0.5058846  0.0055344  0.5015358

 Al 
  0.4956227  0.2585726  0.7443976

 Al 
  0.7247030  0.9858002  0.7405141

 Al 
  0.7494320  0.2521793  0.4942354

 Al 
  0.5096641  0.5075120  0.4880563

 Al 
  0.5065851  0.7406032  0.7629152

 Al 
  0.7374128  0.5006200  0.7572892

 Al 
  0.7546446  0.7499245  0.5026632

