32 
charge = 0 
 Al 
  0.0206574  0.9999950  0.9903953

 Al 
  0.0022177  0.2522078  0.2512425

 Al 
  0.2388310  0.0064366  0.2485384

 Al 
  0.2401243  0.2526422  0.0066172

 Al 
  0.4938357  0.0133384  0.9871714

 Al 
  0.5051074  0.2518390  0.2570034

 Al 
  0.7561148  0.9947676  0.2587471

 Al 
  0.7479506  0.2366294  0.9852643

 Al 
  0.0063858  0.5041050  0.9928531

 Al 
  0.9951846  0.7383818  0.2541891

 Al 
  0.2578189  0.5031149  0.2476697

 Al 
  0.2637605  0.7460930  0.0101393

 Al 
  0.0039751  0.0147975  0.5140637

 Al 
  0.9940263  0.2412665  0.7519962

 Al 
  0.2468950  0.0017573  0.7462106

 Al 
  0.2627914  0.2470311  0.4914707

 Al 
  0.0034627  0.4809094  0.4931798

 Al 
  0.9823746  0.7517611  0.7403681

 Al 
  0.2478862  0.5040815  0.7493639

 Al 
  0.2547015  0.7653037  0.5063277

 Al 
  0.5004554  0.4928716  0.0187713

 Al 
  0.4993255  0.7565195  0.2616219

 Al 
  0.7450361  0.4849116  0.2421600

 Al 
  0.7498527  0.7545282  0.9996275

 Al 
  0.5045023  0.0076246  0.5031409

 Al 
  0.4950782  0.2622543  0.7439817

 Al 
  0.7300604  0.9858485  0.7404435

 Al 
  0.7477538  0.2499295  0.4954792

 Al 
  0.5093015  0.5048290  0.4885773

 Al 
  0.5057002  0.7420734  0.7625662

 Al 
  0.7359920  0.4991993  0.7564551

 Al 
  0.7528414  0.7529528  0.5043636

