32 
charge = 0 
 Al 
  0.0193666  0.0017809  0.9928667

 Al 
  0.9928704  0.2506807  0.2472229

 Al 
  0.2425041  0.0032622  0.2550864

 Al 
  0.2497983  0.2521979  0.0067979

 Al 
  0.4901057  0.0098114  0.9914868

 Al 
  0.5069935  0.2490260  0.2590627

 Al 
  0.7533501  0.9911366  0.2556705

 Al 
  0.7533785  0.2425672  0.9878756

 Al 
  0.0048055  0.5100391  0.9917752

 Al 
  0.0029281  0.7385810  0.2524739

 Al 
  0.2620365  0.5007017  0.2418828

 Al 
  0.2647876  0.7428890  0.0084662

 Al 
  0.0057534  0.0132790  0.5122853

 Al 
  0.9912467  0.2453554  0.7471301

 Al 
  0.2469482  0.9986214  0.7454804

 Al 
  0.2620650  0.2493020  0.4917455

 Al 
  0.9990372  0.4868261  0.4869499

 Al 
  0.9881206  0.7527115  0.7427479

 Al 
  0.2477043  0.5003911  0.7461240

 Al 
  0.2538637  0.7621949  0.5095020

 Al 
  0.5003874  0.4878508  0.0092149

 Al 
  0.4969346  0.7601963  0.2700287

 Al 
  0.7389733  0.4852668  0.2412678

 Al 
  0.7510210  0.7531224  0.0040010

 Al 
  0.5009665  0.0110279  0.5059576

 Al 
  0.4938988  0.2690399  0.7436290

 Al 
  0.7423259  0.9879573  0.7416242

 Al 
  0.7444359  0.2455572  0.4988095

 Al 
  0.5077966  0.4994505  0.4909955

 Al 
  0.5024974  0.7452589  0.7609970

 Al 
  0.7344438  0.4959457  0.7543352

 Al 
  0.7486535  0.7579687  0.5065083

