32 
charge = 0 
 Al 
  0.0201785  0.0012178  0.9917504

 Al 
  0.9965398  0.2513539  0.2489097

 Al 
  0.2409299  0.0046149  0.2524949

 Al 
  0.2459136  0.2523204  0.0068796

 Al 
  0.4914732  0.0112829  0.9896230

 Al 
  0.5063314  0.2503515  0.2584340

 Al 
  0.7544540  0.9924793  0.2570232

 Al 
  0.7512413  0.2402294  0.9867073

 Al 
  0.0055406  0.5078226  0.9921811

 Al 
  0.9998354  0.7383669  0.2531273

 Al 
  0.2605440  0.5017214  0.2439248

 Al 
  0.2645042  0.7439953  0.0092471

 Al 
  0.0051173  0.0140587  0.5132964

 Al 
  0.9922281  0.2435164  0.7490260

 Al 
  0.2467576  0.9997834  0.7456896

 Al 
  0.2625761  0.2482538  0.4915252

 Al 
  0.0007661  0.4843139  0.4891936

 Al 
  0.9856010  0.7524318  0.7417244

 Al 
  0.2478145  0.5018613  0.7474704

 Al 
  0.2542832  0.7636008  0.5082867

 Al 
  0.5003713  0.4897555  0.0132691

 Al 
  0.4977662  0.7587075  0.2669088

 Al 
  0.7411353  0.4849141  0.2415611

 Al 
  0.7506114  0.7536793  0.0021831

 Al 
  0.5024429  0.0098473  0.5048822

 Al 
  0.4943790  0.2665697  0.7436699

 Al 
  0.7373756  0.9868125  0.7409163

 Al 
  0.7456896  0.2472241  0.4973887

 Al 
  0.5085144  0.5015148  0.4898483

 Al 
  0.5039293  0.7439706  0.7617432

 Al 
  0.7348040  0.4972217  0.7552485

 Al 
  0.7503502  0.7562076  0.5058660

