32 
charge = 0 
 Al 
  0.0188468  0.0019912  0.9934657

 Al 
  0.9911465  0.2503280  0.2463690

 Al 
  0.2433097  0.0025778  0.2563128

 Al 
  0.2516571  0.2521558  0.0066841

 Al 
  0.4895277  0.0090726  0.9924472

 Al 
  0.5072608  0.2482922  0.2592644

 Al 
  0.7528216  0.9905450  0.2549602

 Al 
  0.7543847  0.2436637  0.9884931

 Al 
  0.0044107  0.5110155  0.9915858

 Al 
  0.0044156  0.7387592  0.2521756

 Al 
  0.2626689  0.5001733  0.2410289

 Al 
  0.2648656  0.7424447  0.0080343

 Al 
  0.0060170  0.0128224  0.5116492

 Al 
  0.9908495  0.2463418  0.7462403

 Al 
  0.2471202  0.9981201  0.7454309

 Al 
  0.2617024  0.2498800  0.4919002

 Al 
  0.9982167  0.4881021  0.4859821

 Al 
  0.9894337  0.7527944  0.7432726

 Al 
  0.2476202  0.4996857  0.7454507

 Al 
  0.2536211  0.7614289  0.5100626

 Al 
  0.5004146  0.4869833  0.0071593

 Al 
  0.4965819  0.7609104  0.2714160

 Al 
  0.7380501  0.4855477  0.2411638

 Al 
  0.7511868  0.7528588  0.0048983

 Al 
  0.5002327  0.0115093  0.5064774

 Al 
  0.4936575  0.2700795  0.7436624

 Al 
  0.7447168  0.9886528  0.7420932

 Al 
  0.7438790  0.2447923  0.4995359

 Al 
  0.5073870  0.4985075  0.4916242

 Al 
  0.5017524  0.7458962  0.7605812

 Al 
  0.7344117  0.4953678  0.7538525

 Al 
  0.7478343  0.7586988  0.5067262

