32 
charge = 0 
 Al 
  0.0173024  0.0023489  0.9950411

 Al 
  0.9872618  0.2494320  0.2442627

 Al 
  0.2453183  0.0009133  0.2590973

 Al 
  0.2559143  0.2520779  0.0062237

 Al 
  0.4884523  0.0072534  0.9948691

 Al 
  0.5077286  0.2463071  0.2594265

 Al 
  0.7515989  0.9893248  0.2531397

 Al 
  0.7566581  0.2461252  0.9900834

 Al 
  0.0033983  0.5130055  0.9911564

 Al 
  0.0078919  0.7394114  0.2515173

 Al 
  0.2639275  0.4988157  0.2393953

 Al 
  0.2649003  0.7416564  0.0068635

 Al 
  0.0064997  0.0115403  0.5097421

 Al 
  0.9901552  0.2489345  0.7442082

 Al 
  0.2477353  0.9971388  0.7454965

 Al 
  0.2605007  0.2514418  0.4923952

 Al 
  0.9963034  0.4912591  0.4840144

 Al 
  0.9927627  0.7528353  0.7445795

 Al 
  0.2472996  0.4980546  0.7438134

 Al 
  0.2529528  0.7593473  0.5113014

 Al 
  0.5005322  0.4851220  0.0020964

 Al 
  0.4958579  0.7625328  0.2743429

 Al 
  0.7361987  0.4865378  0.2410289

 Al 
  0.7514677  0.7522586  0.0070355

 Al 
  0.4984592  0.0123917  0.5077533

 Al 
  0.4930412  0.2719915  0.7438815

 Al 
  0.7503007  0.9906812  0.7435820

 Al 
  0.7427355  0.2430969  0.5013415

 Al 
  0.5062311  0.4964680  0.4932701

 Al 
  0.4998973  0.7474531  0.7594537

 Al 
  0.7347829  0.4941698  0.7525692

 Al 
  0.7459309  0.7600738  0.5070195

