32 
charge = 0 
 Al 
  0.0176353  0.0022944  0.9947181

 Al 
  0.9879882  0.2496114  0.2446785

 Al 
  0.2449186  0.0012388  0.2585738

 Al 
  0.2551111  0.2520927  0.0063351

 Al 
  0.4886243  0.0076147  0.9943827

 Al 
  0.5076580  0.2467192  0.2594327

 Al 
  0.7518316  0.9895389  0.2535085

 Al 
  0.7562324  0.2456661  0.9897616

 Al 
  0.0036013  0.5126603  0.9912368

 Al 
  0.0072261  0.7392580  0.2516398

 Al 
  0.2637097  0.4990916  0.2396676

 Al 
  0.2649102  0.7417776  0.0071073

 Al 
  0.0064242  0.0118101  0.5101567

 Al 
  0.9902591  0.2484048  0.7445931

 Al 
  0.2475929  0.9973021  0.7454606

 Al 
  0.2607730  0.2511175  0.4922863

 Al 
  0.9966710  0.4906341  0.4843584

 Al 
  0.9920957  0.7528452  0.7443196

 Al 
  0.2473764  0.4983639  0.7441340

 Al 
  0.2530927  0.7597817  0.5110737

 Al 
  0.5005037  0.4854574  0.0030939

 Al 
  0.4959866  0.7622308  0.2738194

 Al 
  0.7365192  0.4863076  0.2410413

 Al 
  0.7514269  0.7523724  0.0066222

 Al 
  0.4988058  0.0122494  0.5074972

 Al 
  0.4931662  0.2716920  0.7438246

 Al 
  0.7492315  0.9902455  0.7432503

 Al 
  0.7429348  0.2434112  0.5009839

 Al 
  0.5064774  0.4968380  0.4929360

 Al 
  0.5002636  0.7471462  0.7596876

 Al 
  0.7346567  0.4943778  0.7528353

 Al 
  0.7462935  0.7598485  0.5069848

