32 
charge = 0 
 Al 
  0.0154930  0.0025271  0.9967019

 Al 
  0.9839897  0.2485471  0.2422405

 Al 
  0.2473009  0.9993565  0.2614611

 Al 
  0.2595540  0.2519764  0.0055480

 Al 
  0.4879263  0.0054490  0.9973182

 Al 
  0.5079192  0.2441562  0.2591184

 Al 
  0.7505185  0.9884733  0.2512747

 Al 
  0.7585825  0.2481845  0.9917071

 Al 
  0.0023848  0.5143433  0.9907901

 Al 
  0.0110341  0.7403631  0.2509603

 Al 
  0.2647938  0.4973937  0.2384003

 Al 
  0.2647468  0.7412863  0.0055752

 Al 
  0.0067212  0.0100923  0.5074353

 Al 
  0.9898978  0.2516695  0.7424236

 Al 
  0.2485743  0.9965670  0.7458467

 Al 
  0.2588956  0.2531434  0.4930078

 Al 
  0.9945423  0.4943419  0.4826135

 Al 
  0.9960967  0.7526620  0.7458665

 Al 
  0.2468034  0.4966363  0.7422578

 Al 
  0.2522152  0.7570108  0.5123100

 Al 
  0.5007116  0.4837496  0.9972378

 Al 
  0.4953059  0.7638619  0.2765284

 Al 
  0.7349104  0.4879387  0.2410747

 Al 
  0.7515432  0.7517202  0.0089835

 Al 
  0.4967861  0.0128570  0.5090837

 Al 
  0.4924038  0.2728454  0.7442503

 Al 
  0.7553166  0.9930560  0.7455064

 Al 
  0.7419645  0.2416848  0.5031050

 Al 
  0.5048785  0.4948963  0.4949532

 Al 
  0.4981263  0.7489679  0.7582224

 Al 
  0.7358027  0.4933815  0.7511509

 Al 
  0.7442602  0.7608608  0.5070479

