32 
charge = 0 
 Al 
  0.0151020  0.0025457  0.9970447

 Al 
  0.9834018  0.2483738  0.2418469

 Al 
  0.2476969  0.9990595  0.2618880

 Al 
  0.2602111  0.2519467  0.0053896

 Al 
  0.4878867  0.0050827  0.9978157

 Al 
  0.5079266  0.2437058  0.2590008

 Al 
  0.7503181  0.9883459  0.2508948

 Al 
  0.7589278  0.2485545  0.9920338

 Al 
  0.0021818  0.5145364  0.9907245

 Al 
  0.0116306  0.7405920  0.2508564

 Al 
  0.2649287  0.4970979  0.2382667

 Al 
  0.2646985  0.7412566  0.0053017

 Al 
  0.0067348  0.0097829  0.5069279

 Al 
  0.9898978  0.2522350  0.7420883

 Al 
  0.2487649  0.9965002  0.7459532

 Al 
  0.2585219  0.2534998  0.4931427

 Al 
  0.9941995  0.4949532  0.4823907

 Al 
  0.9967650  0.7526063  0.7461252

 Al 
  0.2466809  0.4963777  0.7419546

 Al 
  0.2520605  0.7565059  0.5124858

 Al 
  0.5007549  0.4835379  0.9962886

 Al 
  0.4952094  0.7640872  0.2768848

 Al 
  0.7347087  0.4882716  0.2411056

 Al 
  0.7515321  0.7516163  0.0093510

 Al 
  0.4964593  0.0129053  0.5093671

 Al 
  0.4922727  0.2728813  0.7443382

 Al 
  0.7562633  0.9935696  0.7459457

 Al 
  0.7418544  0.2414299  0.5034540

 Al 
  0.5045802  0.4946364  0.4952911

 Al 
  0.4977848  0.7492698  0.7579637

 Al 
  0.7360861  0.4932776  0.7508465

 Al 
  0.7439545  0.7609561  0.5070331

