32 
charge = 0 
 Al 
  0.0116108  0.0025259  0.9999790

 Al 
  0.9793884  0.2470633  0.2388718

 Al 
  0.2509616  0.9968343  0.2648334

 Al 
  0.2647319  0.2514715  0.0038711

 Al 
  0.4883731  0.0019157  0.0020247

 Al 
  0.5076259  0.2398272  0.2573623

 Al 
  0.7488553  0.9878051  0.2477068

 Al 
  0.7612705  0.2511559  0.9946859

 Al 
  0.0005124  0.5151936  0.9903161

 Al 
  0.0161836  0.7429595  0.2500569

 Al 
  0.2656651  0.4945362  0.2378756

 Al 
  0.2641342  0.7414992  0.0028538

 Al 
  0.0064638  0.0069873  0.5022561

 Al 
  0.9905562  0.2571036  0.7394956

 Al 
  0.2505594  0.9965522  0.7472935

 Al 
  0.2547696  0.2565913  0.4943245

 Al 
  0.9914175  0.4999369  0.4811482

 Al 
  0.0022313  0.7519442  0.7482761

 Al 
  0.2453839  0.4946018  0.7395896

 Al 
  0.2507029  0.7518526  0.5136194

 Al 
  0.5011942  0.4827348  0.9888607

 Al 
  0.4944966  0.7653594  0.2788451

 Al 
  0.7336035  0.4916477  0.2416328

 Al 
  0.7510990  0.7507413  0.0120229

 Al 
  0.4938567  0.0127877  0.5120229

 Al 
  0.4911985  0.2714135  0.7451760

 Al 
  0.7634622  0.9981709  0.7502401

 Al 
  0.7414893  0.2396565  0.5062311

 Al 
  0.5017771  0.4931588  0.4980310

 Al 
  0.4952255  0.7517598  0.7556903

 Al 
  0.7393978  0.4931377  0.7480075

 Al 
  0.7417999  0.7610762  0.5067992

