32 
charge = 0 
 Al 
  0.0125476  0.0025593  0.9992080

 Al 
  0.9802819  0.2473739  0.2395834

 Al 
  0.2501225  0.9973652  0.2641701

 Al 
  0.2637196  0.2516398  0.0042931

 Al 
  0.4881144  0.0027610  0.0009245

 Al 
  0.5077595  0.2408470  0.2578907

 Al 
  0.7492005  0.9878583  0.2485335

 Al 
  0.7607557  0.2505544  0.9940189

 Al 
  0.0009418  0.5151775  0.9903953

 Al 
  0.0150698  0.7422702  0.2502587

 Al 
  0.2655314  0.4952168  0.2378706

 Al 
  0.2643025  0.7413618  0.0035147

 Al 
  0.0065974  0.0077471  0.5035320

 Al 
  0.9902765  0.2558203  0.7401403

 Al 
  0.2500693  0.9964408  0.7468714

 Al 
  0.2558512  0.2557769  0.4940139

 Al 
  0.9921328  0.4986634  0.4813784

 Al 
  0.0008378  0.7521385  0.7477155

 Al 
  0.2457626  0.4949990  0.7401725

 Al 
  0.2510631  0.7531323  0.5133818

 Al 
  0.5010668  0.4827744  0.9907010

 Al 
  0.4946723  0.7651391  0.2784998

 Al 
  0.7338065  0.4906737  0.2414509

 Al 
  0.7512685  0.7509740  0.0113992

 Al 
  0.4945114  0.0129004  0.5112804

 Al 
  0.4914682  0.2720930  0.7449470

 Al 
  0.7617049  0.9969346  0.7490248

 Al 
  0.7414955  0.2400624  0.5055356

 Al 
  0.5025568  0.4934298  0.4973380

 Al 
  0.4958344  0.7511175  0.7562967

 Al 
  0.7383867  0.4930498  0.7487946

 Al 
  0.7422900  0.7611467  0.5068648

