32 
charge = 0 
 Al 
  0.0130006  0.0025692  0.9988330

 Al 
  0.9807559  0.2475348  0.2399485

 Al 
  0.2497092  0.9976375  0.2638199

 Al 
  0.2631838  0.2517103  0.0044936

 Al 
  0.4880204  0.0031682  0.0003874

 Al 
  0.5078115  0.2413433  0.2581246

 Al 
  0.7493775  0.9879065  0.2489382

 Al 
  0.7604809  0.2502438  0.9936847

 Al 
  0.0011534  0.5151317  0.9904411

 Al 
  0.0145079  0.7419509  0.2503589

 Al 
  0.2654522  0.4955460  0.2378929

 Al 
  0.2643792  0.7413123  0.0038315

 Al 
  0.0066469  0.0081097  0.5041421

 Al 
  0.9901663  0.2551965  0.7404621

 Al 
  0.2498342  0.9964098  0.7466833

 Al 
  0.2563536  0.2553809  0.4938617

 Al 
  0.9924830  0.4980360  0.4815121

 Al 
  0.0001485  0.7522289  0.7474432

 Al 
  0.2459383  0.4952094  0.7404671

 Al 
  0.2512376  0.7537412  0.5132506

 Al 
  0.5010074  0.4828375  0.9916242

 Al 
  0.4947602  0.7650017  0.2782907

 Al 
  0.7339241  0.4902208  0.2413730

 Al 
  0.7513378  0.7510853  0.0110762

 Al 
  0.4948369  0.0129362  0.5109302

 Al 
  0.4916031  0.2723516  0.7448369

 Al 
  0.7608188  0.9963393  0.7484555

 Al 
  0.7415190  0.2402740  0.5051879

 Al 
  0.5029256  0.4935894  0.4969940

 Al 
  0.4961475  0.7508032  0.7565900

 Al 
  0.7379288  0.4930387  0.7491671

 Al 
  0.7425474  0.7611579  0.5068982

