32 
charge = 0 
 Al 
  0.0138718  0.0025741  0.9981016

 Al 
  0.9817583  0.2478640  0.2406935

 Al 
  0.2488961  0.9981944  0.2630860

 Al 
  0.2620551  0.2518254  0.0048735

 Al 
  0.4879004  0.0039540  0.9993391

 Al 
  0.5078870  0.2423123  0.2585330

 Al 
  0.7497426  0.9880414  0.2497339

 Al 
  0.7598943  0.2495978  0.9930214

 Al 
  0.0015692  0.5149658  0.9905450

 Al 
  0.0133743  0.7413618  0.2505569

 Al 
  0.2652715  0.4961846  0.2379870

 Al 
  0.2645216  0.7412504  0.0044416

 Al 
  0.0067138  0.0088053  0.5053079

 Al 
  0.9900042  0.2539837  0.7411056

 Al 
  0.2493849  0.9963987  0.7463504

 Al 
  0.2572868  0.2546087  0.4935647

 Al 
  0.9931748  0.4967947  0.4818190

 Al 
  0.9987847  0.7523972  0.7469086

 Al 
  0.2462613  0.4956524  0.7410574

 Al 
  0.2515767  0.7548995  0.5129672

 Al 
  0.5008985  0.4830442  0.9934780

 Al 
  0.4949347  0.7646812  0.2778018

 Al 
  0.7341963  0.4893805  0.2412418

 Al 
  0.7514442  0.7513007  0.0104079

 Al 
  0.4954854  0.0129647  0.5102718

 Al 
  0.4918742  0.2727105  0.7446265

 Al 
  0.7590255  0.9951896  0.7473863

 Al 
  0.7416106  0.2407158  0.5044948

 Al 
  0.5036236  0.4939570  0.4963096

 Al 
  0.4967885  0.7501832  0.7571568

 Al 
  0.7371046  0.4930758  0.7498725

 Al 
  0.7430857  0.7611306  0.5069601

