32 
charge = 0 
 Al 
  0.0134424  0.0025741  0.9984642

 Al 
  0.9812472  0.2476981  0.2403185

 Al 
  0.2493008  0.9979135  0.2634585

 Al 
  0.2626293  0.2517710  0.0046866

 Al 
  0.4879486  0.0035654  0.9998602

 Al 
  0.5078548  0.2418321  0.2583387

 Al 
  0.7495582  0.9879672  0.2493379

 Al 
  0.7601938  0.2499245  0.9933531

 Al 
  0.0013626  0.5150611  0.9904918

 Al 
  0.0139436  0.7416489  0.2504579

 Al 
  0.2653656  0.4958678  0.2379313

 Al 
  0.2644535  0.7412752  0.0041409

 Al 
  0.0066853  0.0084625  0.5047337

 Al 
  0.9900760  0.2545852  0.7407839

 Al 
  0.2496052  0.9963962  0.7465101

 Al 
  0.2568313  0.2549911  0.4937119

 Al 
  0.9928308  0.4974135  0.4816593

 Al 
  0.9994641  0.7523155  0.7471734

 Al 
  0.2461054  0.4954272  0.7407616

 Al 
  0.2514083  0.7543302  0.5131132

 Al 
  0.5009517  0.4829278  0.9925486

 Al 
  0.4948468  0.7648495  0.2780580

 Al 
  0.7340540  0.4897901  0.2413036

 Al 
  0.7513960  0.7511942  0.0107458

 Al 
  0.4951611  0.0129573  0.5105948

 Al 
  0.4917393  0.2725571  0.7447305

 Al 
  0.7599265  0.9957576  0.7479085

 Al 
  0.7415573  0.2404918  0.5048413

 Al 
  0.5032808  0.4937652  0.4966512

 Al 
  0.4964655  0.7504913  0.7568759

 Al 
  0.7375019  0.4930474  0.7495260

 Al 
  0.7428122  0.7611529  0.5069303

