32 
charge = 0 
 Al 
  0.0085516  0.0022957  0.0024689

 Al 
  0.9771905  0.2462514  0.2369648

 Al 
  0.2536025  0.9953728  0.2665375

 Al 
  0.2672813  0.2506868  0.0024479

 Al 
  0.4897431  0.9990743  0.0055628

 Al 
  0.5069984  0.2365836  0.2552869

 Al 
  0.7478961  0.9879857  0.2451228

 Al 
  0.7624647  0.2528414  0.9966586

 Al 
  0.9991609  0.5146057  0.9902171

 Al 
  0.0194743  0.7454643  0.2493837

 Al 
  0.2658990  0.4923048  0.2382531

 Al 
  0.2635315  0.7422021  0.0006547

 Al 
  0.0057708  0.0044144  0.4979828

 Al 
  0.9919274  0.2612470  0.7375093

 Al 
  0.2521509  0.9973083  0.7489505

 Al 
  0.2508415  0.2591703  0.4952812

 Al 
  0.9891119  0.5039169  0.4807349

 Al 
  0.0065257  0.7513118  0.7500879

 Al 
  0.2440250  0.4936068  0.7378966

 Al 
  0.2495384  0.7474803  0.5141280

 Al 
  0.5016633  0.4833969  0.9833956

 Al 
  0.4939347  0.7655463  0.2792857

 Al 
  0.7332236  0.4951364  0.2424249

 Al 
  0.7503156  0.7499455  0.0136689

 Al 
  0.4918667  0.0121108  0.5146441

 Al 
  0.4904460  0.2679719  0.7459049

 Al 
  0.7686587  0.0022029  0.7545060

 Al 
  0.7417999  0.2385785  0.5083053

 Al 
  0.4990966  0.4927343  0.5001460

 Al 
  0.4935733  0.7537907  0.7536817

 Al 
  0.7431984  0.4939471  0.7452539

 Al 
  0.7405364  0.7605156  0.5066544

