32 
charge = 0 
 Al 
  0.0053277  0.0018365  0.0051631

 Al 
  0.9759319  0.2457589  0.2356678

 Al 
  0.2563376  0.9942466  0.2677306

 Al 
  0.2689087  0.2494146  0.0008601

 Al 
  0.4920128  0.9957737  0.0093127

 Al 
  0.5060752  0.2332768  0.2526125

 Al 
  0.7470930  0.9886850  0.2425598

 Al 
  0.7629362  0.2544020  0.9983949

 Al 
  0.9977811  0.5130303  0.9904225

 Al 
  0.0225608  0.7485483  0.2485545

 Al 
  0.2658878  0.4898693  0.2390624

 Al 
  0.2627914  0.7432776  0.9982253

 Al 
  0.0046124  0.0014368  0.4932491

 Al 
  0.9941637  0.2656601  0.7354747

 Al 
  0.2537374  0.9987154  0.7511670

 Al 
  0.2459247  0.2617618  0.4961611

 Al 
  0.9865700  0.5080231  0.4806977

 Al 
  0.0107779  0.7507623  0.7520766

 Al 
  0.2424459  0.4929273  0.7364635

 Al 
  0.2482996  0.7424682  0.5142394

 Al 
  0.5022672  0.4853646  0.9782177

 Al 
  0.4932998  0.7648767  0.2787882

 Al 
  0.7331060  0.4993503  0.2436327

 Al 
  0.7491461  0.7489864  0.0148099

 Al 
  0.4899473  0.0109339  0.5177739

 Al 
  0.4899238  0.2624301  0.7466215

 Al 
  0.7735941  0.0064861  0.7595527

 Al 
  0.7425288  0.2377667  0.5102161

 Al 
  0.4960188  0.4928617  0.5022425

 Al 
  0.4923605  0.7559155  0.7514281

 Al 
  0.7479667  0.4955992  0.7419261

 Al 
  0.7396676  0.7595552  0.5066952

