32 
charge = 0 
 Al 
  0.0016361  0.0008750  0.0086691

 Al 
  0.9761856  0.2458901  0.2355106

 Al 
  0.2595961  0.9936278  0.2683370

 Al 
  0.2692292  0.2471251  0.9988194

 Al 
  0.4960188  0.9911131  0.0137889

 Al 
  0.5046161  0.2296569  0.2488874

 Al 
  0.7464655  0.9902195  0.2399349

 Al 
  0.7620910  0.2563252  0.9998057

 Al 
  0.9962007  0.5097062  0.9913210

 Al 
  0.0257611  0.7528810  0.2471412

 Al 
  0.2654831  0.4867964  0.2403804

 Al 
  0.2616603  0.7449495  0.9951846

 Al 
  0.0024677  0.9973504  0.4873298

 Al 
  0.9981560  0.2709754  0.7330701

 Al 
  0.2551978  0.0013514  0.7545753

 Al 
  0.2386590  0.2644646  0.4968813

 Al 
  0.9831877  0.5130068  0.4810925

 Al 
  0.0154671  0.7505359  0.7546842

 Al 
  0.2405364  0.4925523  0.7355218

 Al 
  0.2467836  0.7358621  0.5135822

 Al 
  0.5031929  0.4897196  0.9725670

 Al 
  0.4924199  0.7625588  0.2768304

 Al 
  0.7331951  0.5052015  0.2457675

 Al 
  0.7472947  0.7475632  0.0151379

 Al 
  0.4879796  0.0088003  0.5219568

 Al 
  0.4899275  0.2529664  0.7474147

 Al 
  0.7789367  0.0116083  0.7663754

 Al 
  0.7438394  0.2372383  0.5120118

 Al 
  0.4920177  0.4936575  0.5047089

 Al 
  0.4918284  0.7584600  0.7484097

 Al 
  0.7546743  0.4988194  0.7371652

 Al 
  0.7392938  0.7581394  0.5071370

