32 
charge = 0 
 Al 
  0.0038043  0.0015173  0.0065170

 Al 
  0.9757537  0.2456896  0.2353745

 Al 
  0.2576469  0.9938790  0.2680932

 Al 
  0.2692886  0.2486139  0.0000619

 Al 
  0.4934248  0.9940226  0.0111232

 Al 
  0.5055406  0.2317559  0.2511794

 Al 
  0.7467873  0.9891986  0.2414200

 Al 
  0.7628249  0.2551421  0.9990706

 Al 
  0.9971326  0.5119115  0.9906725

 Al 
  0.0239221  0.7502005  0.2480657

 Al 
  0.2657888  0.4886577  0.2395562

 Al 
  0.2623806  0.7438988  0.9970199

 Al 
  0.0038748  0.9998775  0.4908977

 Al 
  0.9955658  0.2678011  0.7345020

 Al 
  0.2544107  0.9996287  0.7524182

 Al 
  0.2432243  0.2629239  0.4965113

 Al 
  0.9852681  0.5100032  0.4808005

 Al 
  0.0127246  0.7505916  0.7530852

 Al 
  0.2416650  0.4927157  0.7359462

 Al 
  0.2476957  0.7399015  0.5141082

 Al 
  0.5026063  0.4868101  0.9758861

 Al 
  0.4929645  0.7641899  0.2782028

 Al 
  0.7331159  0.5015816  0.2443802

 Al 
  0.7484642  0.7484642  0.0151119

 Al 
  0.4891008  0.0101901  0.5194062

 Al 
  0.4898161  0.2590466  0.7469445

 Al 
  0.7758168  0.0085478  0.7621838

 Al 
  0.7429979  0.2374920  0.5110193

 Al 
  0.4944532  0.4930981  0.5032313

 Al 
  0.4919992  0.7569403  0.7502673

 Al 
  0.7505223  0.4967007  0.7401317

 Al 
  0.7394201  0.7590082  0.5068103

