32 
charge = 0 
 Al 
  0.0012735  0.0007351  0.0090763

 Al 
  0.9763774  0.2459779  0.2356331

 Al 
  0.2599401  0.9936340  0.2683333

 Al 
  0.2691154  0.2468145  0.9985917

 Al 
  0.4965571  0.9905438  0.0142518

 Al 
  0.5044329  0.2293191  0.2484617

 Al 
  0.7464321  0.9904411  0.2397134

 Al 
  0.7618657  0.2565566  0.9998911

 Al 
  0.9960423  0.5092297  0.9914856

 Al 
  0.0260569  0.7533860  0.2469407

 Al 
  0.2654015  0.4864574  0.2405339

 Al 
  0.2615143  0.7451537  0.9948555

 Al 
  0.0021657  0.9968702  0.4866913

 Al 
  0.9986931  0.2715274  0.7328226

 Al 
  0.2552943  0.0017153  0.7550059

 Al 
  0.2377605  0.2646998  0.4969172

 Al 
  0.9827966  0.5135538  0.4811618

 Al 
  0.0159274  0.7505619  0.7549849

 Al 
  0.2403495  0.4925486  0.7355106

 Al 
  0.2466202  0.7351134  0.5134300

 Al 
  0.5033105  0.4903557  0.9719952

 Al 
  0.4923147  0.7621665  0.2765074

 Al 
  0.7332174  0.5058896  0.2460596

 Al 
  0.7470657  0.7473813  0.0150698

 Al 
  0.4878063  0.0085070  0.5224197

 Al 
  0.4899968  0.2517264  0.7475014

 Al 
  0.7794614  0.0121492  0.7671563

 Al 
  0.7440090  0.2372160  0.5121516

 Al 
  0.4915722  0.4937837  0.5049762

 Al 
  0.4918606  0.7587261  0.7480595

 Al 
  0.7554626  0.4992760  0.7365935

 Al 
  0.7393075  0.7579835  0.5072187

