32 
charge = 0 
 Al 
  0.0048067  0.0017363  0.0056173

 Al 
  0.9758366  0.2457205  0.2355403

 Al 
  0.2567818  0.9941067  0.2678692

 Al 
  0.2690696  0.2491585  0.0005916

 Al 
  0.4924670  0.9951933  0.0099277

 Al 
  0.5058995  0.2327533  0.2521360

 Al 
  0.7469828  0.9888458  0.2421638

 Al 
  0.7629263  0.2546520  0.9986374

 Al 
  0.9975595  0.5126788  0.9904943

 Al 
  0.0230323  0.7490966  0.2483974

 Al 
  0.2658618  0.4894609  0.2392245

 Al 
  0.2626566  0.7434805  0.9978194

 Al 
  0.0043773  0.0009183  0.4924558

 Al 
  0.9946141  0.2663866  0.7351443

 Al 
  0.2539751  0.9990062  0.7515767

 Al 
  0.2450361  0.2621640  0.4962873

 Al 
  0.9861343  0.5086939  0.4807237

 Al 
  0.0114462  0.7506943  0.7524145

 Al 
  0.2421811  0.4928469  0.7362730

 Al 
  0.2480954  0.7416081  0.5142109

 Al 
  0.5023786  0.4858163  0.9774157

 Al 
  0.4931885  0.7646738  0.2786162

 Al 
  0.7331048  0.5000916  0.2438716

 Al 
  0.7489233  0.7488144  0.0149324

 Al 
  0.4896540  0.0106950  0.5183196

 Al 
  0.4898743  0.2613373  0.7467328

 Al 
  0.7743589  0.0071865  0.7604302

 Al 
  0.7426798  0.2376640  0.5104995

 Al 
  0.4954940  0.4929298  0.5025791

 Al 
  0.4922194  0.7562633  0.7510408

 Al 
  0.7488157  0.4959495  0.7413321

 Al 
  0.7395711  0.7593745  0.5067262

