32 
charge = 0 
 Al 
  0.0006312  0.0004455  0.0098658

 Al 
  0.9768625  0.2462019  0.2359698

 Al 
  0.2605824  0.9937033  0.2682788

 Al 
  0.2687949  0.2461846  0.9981585

 Al 
  0.4976412  0.9894238  0.0150958

 Al 
  0.5040703  0.2287313  0.2476548

 Al 
  0.7463975  0.9908953  0.2393532

 Al 
  0.7613398  0.2570170  0.0000062

 Al 
  0.9957552  0.5082545  0.9918469

 Al 
  0.0265729  0.7543513  0.2465237

 Al 
  0.2652146  0.4858188  0.2408235

 Al 
  0.2612185  0.7455473  0.9942379

 Al 
  0.0015470  0.9959433  0.4854995

 Al 
  0.9997711  0.2725360  0.7323734

 Al 
  0.2554205  0.0024516  0.7558599

 Al 
  0.2359908  0.2650921  0.4969445

 Al 
  0.9820467  0.5145896  0.4813029

 Al 
  0.0167529  0.7506510  0.7555641

 Al 
  0.2400203  0.4925697  0.7355700

 Al 
  0.2463121  0.7336852  0.5130773

 Al 
  0.5035419  0.4916663  0.9709408

 Al 
  0.4921130  0.7613200  0.2758255

 Al 
  0.7332644  0.5072199  0.2466512

 Al 
  0.7466190  0.7470150  0.0148607

 Al 
  0.4875130  0.0079093  0.5232798

 Al 
  0.4901837  0.2492513  0.7476721

 Al 
  0.7804094  0.0131553  0.7686476

 Al 
  0.7443443  0.2371962  0.5123694

 Al 
  0.4907307  0.4940448  0.5054799

 Al 
  0.4919880  0.7592186  0.7473863

 Al 
  0.7569799  0.5002141  0.7354859

 Al 
  0.7393706  0.7576976  0.5073957

