32 
charge = 0 
 Al 
  0.9996745  0.9998490  0.0113546

 Al 
  0.9782139  0.2468417  0.2369932

 Al 
  0.2616727  0.9940585  0.2679954

 Al 
  0.2677862  0.2449111  0.9973900

 Al 
  0.4998243  0.9872519  0.0164497

 Al 
  0.5033736  0.2279206  0.2462304

 Al 
  0.7464630  0.9918432  0.2389746

 Al 
  0.7600045  0.2579526  0.0000260

 Al 
  0.9953022  0.5062287  0.9927058

 Al 
  0.0273081  0.7560863  0.2456166

 Al 
  0.2647493  0.4846926  0.2413148

 Al 
  0.2606183  0.7462762  0.9931748

 Al 
  0.0002463  0.9942243  0.4834736

 Al 
  0.0019145  0.2741486  0.7316705

 Al 
  0.2553958  0.0039491  0.7575318

 Al 
  0.2325813  0.2655500  0.4968133

 Al 
  0.9806829  0.5164534  0.4815764

 Al 
  0.0180362  0.7509789  0.7566408

 Al 
  0.2395636  0.4927268  0.7360205

 Al 
  0.2457688  0.7311197  0.5121739

 Al 
  0.5039911  0.4944136  0.9691661

 Al 
  0.4917380  0.7593844  0.2743218

 Al 
  0.7333684  0.5096802  0.2478689

 Al 
  0.7457861  0.7462700  0.0141528

 Al 
  0.4871343  0.0066680  0.5247104

 Al 
  0.4907591  0.2443629  0.7480199

 Al 
  0.7819167  0.0148780  0.7713232

 Al 
  0.7449916  0.2372407  0.5125637

 Al 
  0.4892580  0.4945683  0.5063821

 Al 
  0.4924905  0.7600317  0.7461512

 Al 
  0.7597706  0.5021954  0.7334253

 Al 
  0.7396169  0.7572422  0.5077892

