32 
charge = 0 
 Al 
  0.9992463  0.9993961  0.0124115

 Al 
  0.9795468  0.2474902  0.2380563

 Al 
  0.2623274  0.9945114  0.2676439

 Al 
  0.2667219  0.2439483  0.9968950

 Al 
  0.5014727  0.9856666  0.0171712

 Al 
  0.5028749  0.2276348  0.2453307

 Al 
  0.7466338  0.9925907  0.2389981

 Al 
  0.7587632  0.2586914  0.9998800

 Al 
  0.9950683  0.5046470  0.9934731

 Al 
  0.0276113  0.7572026  0.2448654

 Al 
  0.2643075  0.4839760  0.2415957

 Al 
  0.2601554  0.7467662  0.9925214

 Al 
  0.9992141  0.9930449  0.4822633

 Al 
  0.0034825  0.2749938  0.7313314

 Al 
  0.2551186  0.0050790  0.7587570

 Al 
  0.2301322  0.2656069  0.4965398

 Al 
  0.9797869  0.5176996  0.4817521

 Al 
  0.0186884  0.7513601  0.7573821

 Al 
  0.2394114  0.4929533  0.7366653

 Al 
  0.2454136  0.7294441  0.5113113

 Al 
  0.5043129  0.4965707  0.9680882

 Al 
  0.4914769  0.7577113  0.2730768

 Al 
  0.7334538  0.5113583  0.2488144

 Al 
  0.7452267  0.7456945  0.0133644

 Al 
  0.4870266  0.0056878  0.5255000

 Al 
  0.4913816  0.2407703  0.7483157

 Al 
  0.7827323  0.0159349  0.7730570

 Al 
  0.7454507  0.2373373  0.5124981

 Al 
  0.4883347  0.4949384  0.5069823

 Al 
  0.4930746  0.7604933  0.7453233

 Al 
  0.7616529  0.5037795  0.7320256

 Al 
  0.7398965  0.7570195  0.5081110

