32 
charge = 0 
 Al 
  0.9998725  0.0000000  0.0109933

 Al 
  0.9778303  0.2466586  0.2366950

 Al 
  0.2614239  0.9939434  0.2680870

 Al 
  0.2680833  0.2452304  0.9975707

 Al 
  0.4992773  0.9877877  0.0161527

 Al 
  0.5035444  0.2280766  0.2465621

 Al 
  0.7464296  0.9916019  0.2390253

 Al 
  0.7603732  0.2577150  0.0000458

 Al 
  0.9954000  0.5067435  0.9924731

 Al 
  0.0271608  0.7556779  0.2458529

 Al 
  0.2648780  0.4849550  0.2412034

 Al 
  0.2607693  0.7461017  0.9934199

 Al 
  0.0005792  0.9946376  0.4839352

 Al 
  0.0013824  0.2737971  0.7318202

 Al 
  0.2554378  0.0035728  0.7571185

 Al 
  0.2334179  0.2654757  0.4968702

 Al 
  0.9810071  0.5160116  0.4815108

 Al 
  0.0177603  0.7508774  0.7563821

 Al 
  0.2396515  0.4926724  0.7358658

 Al 
  0.2458962  0.7317249  0.5124251

 Al 
  0.5038810  0.4937132  0.9695721

 Al 
  0.4918284  0.7598980  0.2747141

 Al 
  0.7333412  0.5090899  0.2475608

 Al 
  0.7459853  0.7464581  0.0143656

 Al 
  0.4872036  0.0069836  0.5243911

 Al 
  0.4905896  0.2455745  0.7479308

 Al 
  0.7815863  0.0144820  0.7706933

 Al 
  0.7448332  0.2372197  0.5125452

 Al 
  0.4895995  0.4944384  0.5061680

 Al 
  0.4923345  0.7598498  0.7464457

 Al 
  0.7591035  0.5016868  0.7339191

 Al 
  0.7395414  0.7573400  0.5076865

