32 
charge = 0 
 Al 
  0.9993144  0.9982253  0.0151366

 Al 
  0.9844414  0.2499691  0.2421155

 Al 
  0.2634362  0.9964927  0.2661576

 Al 
  0.2625464  0.2413445  0.9959061

 Al 
  0.5060158  0.9814502  0.0178444

 Al 
  0.5016497  0.2282758  0.2436006

 Al 
  0.7476610  0.9948072  0.2404398

 Al 
  0.7543946  0.2610069  0.9989543

 Al 
  0.9948889  0.5000829  0.9961264

 Al 
  0.0273910  0.7593795  0.2424645

 Al 
  0.2626120  0.4825417  0.2419175

 Al 
  0.2588164  0.7478739  0.9913160

 Al 
  0.9961450  0.9902109  0.4803129

 Al 
  0.0073845  0.2756435  0.7313685

 Al 
  0.2531409  0.0080479  0.7619425

 Al 
  0.2239382  0.2645315  0.4949693

 Al 
  0.9779726  0.5206166  0.4819873

 Al 
  0.0191909  0.7530209  0.7591567

 Al 
  0.2399411  0.4940882  0.7398433

 Al 
  0.2445609  0.7259344  0.5081011

 Al 
  0.5050876  0.5027808  0.9660289

 Al 
  0.4908272  0.7521286  0.2691414

 Al 
  0.7337298  0.5152579  0.2515729

 Al 
  0.7441228  0.7440201  0.0100416

 Al 
  0.4874326  0.0027288  0.5261905

 Al 
  0.4940176  0.2314031  0.7494777

 Al 
  0.7837421  0.0179026  0.7765890

 Al 
  0.7465633  0.2378372  0.5114277

 Al 
  0.4866182  0.4956599  0.5084092

 Al 
  0.4955052  0.7611282  0.7434879

 Al 
  0.7659052  0.5085516  0.7289565

 Al 
  0.7410079  0.7570578  0.5090156

