32 
charge = 0 
 Al 
  0.9992092  0.9983652  0.0147963

 Al 
  0.9837199  0.2495966  0.2415091

 Al 
  0.2633483  0.9961834  0.2663878

 Al 
  0.2631800  0.2416724  0.9960027

 Al 
  0.5054304  0.9819836  0.0178630

 Al 
  0.5017945  0.2280791  0.2437664

 Al 
  0.7474828  0.9945077  0.2401428

 Al 
  0.7550295  0.2606802  0.9991065

 Al 
  0.9948753  0.5006868  0.9957415

 Al 
  0.0275024  0.7591741  0.2428011

 Al 
  0.2628731  0.4826840  0.2419150

 Al 
  0.2589958  0.7477501  0.9914262

 Al 
  0.9965571  0.9905487  0.4804527

 Al 
  0.0069266  0.2756955  0.7312782

 Al 
  0.2534961  0.0076865  0.7615514

 Al 
  0.2246906  0.2647666  0.4952379

 Al 
  0.9781471  0.5202737  0.4819823

 Al 
  0.0192280  0.7527561  0.7589476

 Al 
  0.2397926  0.4938988  0.7393186

 Al 
  0.2446673  0.7262982  0.5085837

 Al 
  0.5049985  0.5019640  0.9662294

 Al 
  0.4909076  0.7529281  0.2696921

 Al 
  0.7336902  0.5148111  0.2512041

 Al 
  0.7442206  0.7442429  0.0105651

 Al 
  0.4873286  0.0031360  0.5262326

 Al 
  0.4935981  0.2325627  0.7492896

 Al 
  0.7837038  0.0177207  0.7762326

 Al 
  0.7464333  0.2377543  0.5116356

 Al 
  0.4867729  0.4955992  0.5082385

 Al 
  0.4951302  0.7610960  0.7436884

 Al 
  0.7654312  0.5079043  0.7292820

 Al 
  0.7408396  0.7569935  0.5089030

