32 
charge = 0 
 Al 
  0.9997958  0.9978330  0.0161638

 Al 
  0.9867853  0.2511955  0.2440993

 Al 
  0.2636132  0.9975212  0.2653916

 Al 
  0.2604487  0.2403643  0.9956710

 Al 
  0.5078041  0.9798376  0.0176019

 Al 
  0.5012326  0.2290790  0.2431909

 Al 
  0.7482810  0.9957490  0.2415388

 Al 
  0.7523328  0.2620638  0.9984481

 Al 
  0.9949941  0.4982142  0.9973776

 Al 
  0.0269021  0.7598634  0.2413866

 Al 
  0.2617296  0.4821841  0.2418507

 Al 
  0.2582533  0.7482266  0.9910611

 Al 
  0.9948654  0.9892184  0.4800926

 Al 
  0.0086852  0.2752413  0.7318078

 Al 
  0.2518737  0.0090998  0.7630922

 Al 
  0.2217316  0.2636478  0.4940337

 Al 
  0.9775605  0.5216165  0.4819526

 Al 
  0.0189050  0.7539218  0.7597569

 Al 
  0.2405413  0.4947490  0.7416489

 Al 
  0.2442367  0.7249827  0.5065022

 Al 
  0.5053351  0.5052968  0.9655227

 Al 
  0.4905772  0.7495458  0.2673754

 Al 
  0.7338671  0.5165264  0.2527239

 Al 
  0.7439186  0.7433258  0.0082719

 Al 
  0.4878360  0.0014306  0.5258094

 Al 
  0.4954470  0.2279466  0.7501436

 Al 
  0.7837038  0.0183333  0.7775061

 Al 
  0.7469358  0.2381194  0.5106727

 Al 
  0.4862668  0.4957675  0.5089179

 Al 
  0.4967563  0.7611480  0.7429372

 Al 
  0.7672281  0.5105824  0.7281050

 Al 
  0.7415561  0.7573684  0.5093436

