32 
charge = 0 
 Al 
  0.9991325  0.9985075  0.0144572

 Al 
  0.9830305  0.2492426  0.2409311

 Al 
  0.2632444  0.9958913  0.2666044

 Al 
  0.2637803  0.2420004  0.9961066

 Al 
  0.5048500  0.9825145  0.0178506

 Al 
  0.5019417  0.2279169  0.2439458

 Al 
  0.7473194  0.9942156  0.2398805

 Al 
  0.7556396  0.2603658  0.9992500

 Al 
  0.9948715  0.5012809  0.9953728

 Al 
  0.0275902  0.7589488  0.2431266

 Al 
  0.2631194  0.4828362  0.2419014

 Al 
  0.2591716  0.7476214  0.9915474

 Al 
  0.9969605  0.9908891  0.4806222

 Al 
  0.0064588  0.2757091  0.7312138

 Al 
  0.2538191  0.0073202  0.7611579

 Al 
  0.2254480  0.2649720  0.4954854

 Al 
  0.9783377  0.5199260  0.4819687

 Al 
  0.0192354  0.7525085  0.7587360

 Al 
  0.2396688  0.4937243  0.7388335

 Al 
  0.2447713  0.7266831  0.5090416

 Al 
  0.5049069  0.5011584  0.9664447

 Al 
  0.4909881  0.7536966  0.2702242

 Al 
  0.7336518  0.5143532  0.2508428

 Al 
  0.7443332  0.7444619  0.0110551

 Al 
  0.4872383  0.0035308  0.5262338

 Al 
  0.4932070  0.2337248  0.7491151

 Al 
  0.7836419  0.0175214  0.7758527

 Al 
  0.7462997  0.2376788  0.5118224

 Al 
  0.4869450  0.4955299  0.5080652

 Al 
  0.4947750  0.7610490  0.7438976

 Al 
  0.7649399  0.5072732  0.7296248

 Al 
  0.7406812  0.7569489  0.5087892

