32 
charge = 0 
 Al 
  0.9996077  0.9979593  0.0158210

 Al 
  0.9859747  0.2507685  0.2434125

 Al 
  0.2635699  0.9971623  0.2656589

 Al 
  0.2611801  0.2406898  0.9957403

 Al 
  0.5072026  0.9803760  0.0177145

 Al 
  0.5013675  0.2287758  0.2433134

 Al 
  0.7480595  0.9954272  0.2411366

 Al 
  0.7530456  0.2616987  0.9986251

 Al 
  0.9949483  0.4988454  0.9969445

 Al 
  0.0270915  0.7597248  0.2417566

 Al 
  0.2620402  0.4822917  0.2418865

 Al 
  0.2584451  0.7481127  0.9911341

 Al 
  0.9952985  0.9895463  0.4801322

 Al 
  0.0082657  0.2754171  0.7316321

 Al 
  0.2523291  0.0087558  0.7627147

 Al 
  0.2224580  0.2639721  0.4943666

 Al 
  0.9776781  0.5212886  0.4819724

 Al 
  0.0190300  0.7536038  0.7595614

 Al 
  0.2403148  0.4945139  0.7410079

 Al 
  0.2443468  0.7252760  0.5070603

 Al 
  0.5052559  0.5044478  0.9656750

 Al 
  0.4906614  0.7504369  0.2679830

 Al 
  0.7338189  0.5161155  0.2523328

 Al 
  0.7439694  0.7435610  0.0088956

 Al 
  0.4876875  0.0018761  0.5259814

 Al 
  0.4949421  0.2290939  0.7499035

 Al 
  0.7837421  0.0182095  0.7772264

 Al 
  0.7468145  0.2380192  0.5109462

 Al 
  0.4863645  0.4957440  0.5087483

 Al 
  0.4963183  0.7611542  0.7431117

 Al 
  0.7668049  0.5098918  0.7283674

 Al 
  0.7413655  0.7572447  0.5092372

