32 
charge = 0 
 Al 
  0.0008081  0.9974036  0.0175264

 Al 
  0.9902690  0.2530456  0.2470719

 Al 
  0.2636330  0.9990854  0.2642023

 Al 
  0.2572336  0.2391033  0.9955076

 Al 
  0.5102297  0.9776917  0.0168383

 Al 
  0.5007326  0.2306470  0.2428481

 Al 
  0.7492983  0.9970942  0.2434756

 Al 
  0.7492624  0.2636404  0.9976882

 Al 
  0.9952886  0.4956265  0.9992525

 Al 
  0.0258861  0.7601728  0.2398186

 Al 
  0.2603176  0.4818907  0.2415784

 Al 
  0.2574514  0.7486461  0.9909014

 Al 
  0.9931043  0.9879474  0.4802807

 Al 
  0.0101876  0.2741349  0.7328202

 Al 
  0.2497215  0.0103584  0.7645154

 Al 
  0.2189694  0.2620699  0.4925202

 Al 
  0.9773266  0.5228739  0.4817831

 Al 
  0.0181093  0.7553562  0.7604883

 Al 
  0.2417021  0.4958406  0.7445795

 Al 
  0.2437713  0.7240768  0.5040332

 Al 
  0.5056062  0.5087446  0.9650859

 Al 
  0.4902245  0.7457057  0.2647629

 Al 
  0.7340961  0.5180276  0.2543352

 Al 
  0.7439149  0.7423593  0.0054577

 Al 
  0.4885637  0.9995248  0.5246498

 Al 
  0.4977501  0.2234679  0.7512945

 Al 
  0.7832966  0.0186278  0.7783526

 Al 
  0.7473813  0.2385884  0.5093634

 Al 
  0.4860737  0.4957131  0.5095787

 Al 
  0.4986894  0.7609945  0.7423407

 Al 
  0.7687231  0.5134523  0.7273254

 Al 
  0.7423741  0.7580899  0.5097198

