32 
charge = 0 
 Al 
  0.0011212  0.9973207  0.0178605

 Al 
  0.9911824  0.2535357  0.2478553

 Al 
  0.2635983  0.9994988  0.2638805

 Al 
  0.2563685  0.2388062  0.9954977

 Al 
  0.5108324  0.9771682  0.0165722

 Al 
  0.5006213  0.2311235  0.2427999

 Al 
  0.7495805  0.9974407  0.2440349

 Al 
  0.7484530  0.2640587  0.9974902

 Al 
  0.9953901  0.4949767  0.9997500

 Al 
  0.0255680  0.7601839  0.2394114

 Al 
  0.2599265  0.4818536  0.2414757

 Al 
  0.2572435  0.7487414  0.9908965

 Al 
  0.9926687  0.9876417  0.4804180

 Al 
  0.0105106  0.2737612  0.7331506

 Al 
  0.2491102  0.0106356  0.7648384

 Al 
  0.2183295  0.2616108  0.4921056

 Al 
  0.9773340  0.5231696  0.4817200

 Al 
  0.0178395  0.7557497  0.7606542

 Al 
  0.2420511  0.4961462  0.7453926

 Al 
  0.2436488  0.7239233  0.5033662

 Al 
  0.5056618  0.5096060  0.9650240

 Al 
  0.4901317  0.7446921  0.2640711

 Al 
  0.7341642  0.5183617  0.2547423

 Al 
  0.7439706  0.7421130  0.0046842

 Al 
  0.4887741  0.9990223  0.5242377

 Al 
  0.4983875  0.2223925  0.7516299

 Al 
  0.7831333  0.0186488  0.7784936

 Al 
  0.7474803  0.2387233  0.5089872

 Al 
  0.4860774  0.4956586  0.5097396

 Al 
  0.4992104  0.7609264  0.7422194

 Al 
  0.7690399  0.5141825  0.7272066

 Al 
  0.7425895  0.7583263  0.5097953

