32 
charge = 0 
 Al 
  0.0002512  0.9976016  0.0168482

 Al 
  0.9884857  0.2520940  0.2455473

 Al 
  0.2636553  0.9982810  0.2648186

 Al 
  0.2588956  0.2397233  0.9955658

 Al 
  0.5090156  0.9787585  0.0172826

 Al 
  0.5009727  0.2297931  0.2429904

 Al 
  0.7487649  0.9964111  0.2424434

 Al 
  0.7508378  0.2628298  0.9980768

 Al 
  0.9951191  0.4969284  0.9982885

 Al 
  0.0264467  0.7600700  0.2406180

 Al 
  0.2610564  0.4820096  0.2417417

 Al 
  0.2578585  0.7484431  0.9909547

 Al 
  0.9939867  0.9885736  0.4801148

 Al 
  0.0094760  0.2747686  0.7322521

 Al 
  0.2508601  0.0097557  0.7638260

 Al 
  0.2203158  0.2629127  0.4933110

 Al 
  0.9773947  0.5222588  0.4818858

 Al 
  0.0185659  0.7546074  0.7601344

 Al 
  0.2410722  0.4952663  0.7430449

 Al 
  0.2440090  0.7244740  0.5053116

 Al 
  0.5054799  0.5070145  0.9652678

 Al 
  0.4904039  0.7476746  0.2661032

 Al 
  0.7339736  0.5173085  0.2535221

 Al 
  0.7438741  0.7428469  0.0069266

 Al 
  0.4881751  0.0005012  0.5253267

 Al 
  0.4965447  0.2256794  0.7506794

 Al 
  0.7835503  0.0185226  0.7779850

 Al 
  0.7471660  0.2383409  0.5100589

 Al 
  0.4861294  0.4957712  0.5092520

 Al 
  0.4976882  0.7610960  0.7426179

 Al 
  0.7680177  0.5120006  0.7276583

 Al 
  0.7419546  0.7576840  0.5095441

