32 
charge = 0 
 Al 
  0.0057225  0.9975967  0.0209495

 Al 
  0.0010185  0.2589340  0.2564366

 Al 
  0.2620774  0.0039664  0.2598498

 Al 
  0.2460175  0.2365155  0.9963418

 Al 
  0.5167962  0.9723417  0.0119462

 Al 
  0.4999245  0.2383595  0.2431761

 Al 
  0.7529404  0.0013143  0.2515358

 Al 
  0.7391986  0.2689929  0.9955596

 Al 
  0.9971635  0.4884325  0.0055133

 Al 
  0.0203777  0.7582112  0.2350255

 Al 
  0.2548203  0.4826989  0.2394869

 Al 
  0.2548673  0.7495508  0.9917987

 Al 
  0.9888421  0.9848485  0.4843721

 Al 
  0.0122296  0.2675264  0.7388137

 Al 
  0.2409621  0.0121529  0.7668135

 Al 
  0.2136862  0.2552906  0.4875798

 Al 
  0.9795864  0.5256126  0.4805987

 Al 
  0.0132902  0.7605193  0.7618422

 Al 
  0.2470100  0.5000866  0.7556903

 Al 
  0.2422021  0.7245706  0.4952403

 Al 
  0.5058673  0.5180956  0.9660141

 Al 
  0.4890290  0.7330206  0.2557411

 Al 
  0.7353794  0.5205770  0.2587879

 Al 
  0.7465856  0.7394758  0.9950238

 Al 
  0.4915091  0.9931662  0.5163259

 Al 
  0.5063772  0.2126343  0.7565603

 Al 
  0.7797881  0.0173271  0.7780630

 Al 
  0.7482006  0.2407641  0.5038439

 Al 
  0.4874944  0.4937614  0.5112272

 Al 
  0.5054218  0.7595218  0.7417232

 Al 
  0.7707094  0.5217576  0.7284726

 Al 
  0.7449025  0.7623769  0.5096517

