32 
charge = 0 
 Al 
  0.0060950  0.9977353  0.0211004

 Al 
  0.0016002  0.2592681  0.2569700

 Al 
  0.2618856  0.0042312  0.2595379

 Al 
  0.2452787  0.2364611  0.9964804

 Al 
  0.5171365  0.9721103  0.0115254

 Al 
  0.4999220  0.2390043  0.2432652

 Al 
  0.7531657  0.0015853  0.2521199

 Al 
  0.7385662  0.2693443  0.9954693

 Al 
  0.9973293  0.4880588  0.0059106

 Al 
  0.0198802  0.7578981  0.2347557

 Al 
  0.2544181  0.4828721  0.2392889

 Al 
  0.2546953  0.7495916  0.9919323

 Al 
  0.9887011  0.9847124  0.4848361

 Al 
  0.0121925  0.2669633  0.7393570

 Al 
  0.2403260  0.0121157  0.7667875

 Al 
  0.2136095  0.2547745  0.4873447

 Al 
  0.9799267  0.5257005  0.4805072

 Al 
  0.0128744  0.7608509  0.7618695

 Al 
  0.2474073  0.5003886  0.7564650

 Al 
  0.2421031  0.7248131  0.4946438

 Al 
  0.5058462  0.5185572  0.9662381

 Al 
  0.4889461  0.7322162  0.2551148

 Al 
  0.7355205  0.5206042  0.2590107

 Al 
  0.7469556  0.7393062  0.9943060

 Al 
  0.4917133  0.9927553  0.5155104

 Al 
  0.5069601  0.2121479  0.7569848

 Al 
  0.7794478  0.0171130  0.7778798

 Al 
  0.7482204  0.2409633  0.5034256

 Al 
  0.4876937  0.4935164  0.5113064

 Al 
  0.5058586  0.7593857  0.7417467

 Al 
  0.7706797  0.5222019  0.7287770

 Al 
  0.7450448  0.7627568  0.5095367

