32 
charge = 0 
 Al 
  0.0041483  0.9972192  0.0201686

 Al 
  0.9982328  0.2573722  0.2539540

 Al 
  0.2627704  0.0027004  0.2611579

 Al 
  0.2492426  0.2369573  0.9958764

 Al 
  0.5151713  0.9735533  0.0136429

 Al 
  0.5000149  0.2357841  0.2428865

 Al 
  0.7519207  0.0001398  0.2490582

 Al 
  0.7420041  0.2674620  0.9960509

 Al 
  0.9965026  0.4902257  0.0037560

 Al 
  0.0223046  0.7592656  0.2362829

 Al 
  0.2565059  0.4821581  0.2402554

 Al 
  0.2556049  0.7493490  0.9913333

 Al 
  0.9897109  0.9855539  0.4826716

 Al 
  0.0121133  0.2697923  0.7366925

 Al 
  0.2436538  0.0120551  0.7666118

 Al 
  0.2144943  0.2574254  0.4888149

 Al 
  0.9784268  0.5250718  0.4809960

 Al 
  0.0149535  0.7590416  0.7616269

 Al 
  0.2453369  0.4988070  0.7523749

 Al 
  0.2426452  0.7238627  0.4978095

 Al 
  0.5058957  0.5158210  0.9653260

 Al 
  0.4893805  0.7365749  0.2583931

 Al 
  0.7348832  0.5202317  0.2576976

 Al 
  0.7453270  0.7402468  0.9981090

 Al 
  0.4906292  0.9949681  0.5194248

 Al 
  0.5038389  0.2150970  0.7548327

 Al 
  0.7810987  0.0180511  0.7786013

 Al 
  0.7480632  0.2400092  0.5055777

 Al 
  0.4867915  0.4946265  0.5108398

 Al 
  0.5035011  0.7600614  0.7417071

 Al 
  0.7705930  0.5196426  0.7275222

 Al 
  0.7442404  0.7608732  0.5099488

