32 
charge = 0 
 Al 
  0.0037449  0.9971697  0.0199297

 Al 
  0.9974321  0.2569303  0.2532536

 Al 
  0.2629214  0.0023378  0.2614970

 Al 
  0.2501077  0.2371219  0.9957861

 Al 
  0.5146998  0.9739258  0.0140599

 Al 
  0.5000594  0.2351480  0.2428345

 Al 
  0.7516410  0.9998230  0.2484147

 Al 
  0.7427677  0.2670524  0.9962032

 Al 
  0.9963430  0.4907467  0.0032795

 Al 
  0.0227650  0.7594735  0.2366393

 Al 
  0.2569415  0.4820615  0.2404386

 Al 
  0.2558005  0.7492884  0.9912368

 Al 
  0.9900030  0.9857705  0.4822942

 Al 
  0.0120143  0.2703492  0.7361839

 Al 
  0.2443518  0.0119648  0.7664856

 Al 
  0.2148198  0.2579699  0.4891862

 Al 
  0.9781941  0.5248899  0.4810975

 Al 
  0.0153606  0.7586419  0.7615440

 Al 
  0.2449062  0.4984728  0.7515036

 Al 
  0.2427664  0.7237575  0.4984914

 Al 
  0.5058871  0.5151490  0.9652096

 Al 
  0.4894721  0.7375390  0.2590887

 Al 
  0.7347743  0.5200832  0.2573771

 Al 
  0.7450696  0.7404609  0.9989233

 Al 
  0.4903965  0.9954544  0.5201475

 Al 
  0.5031632  0.2158458  0.7544008

 Al 
  0.7814056  0.0181934  0.7786805

 Al 
  0.7480125  0.2398297  0.5060195

 Al 
  0.4866455  0.4948109  0.5107247

 Al 
  0.5029825  0.7601913  0.7417281

 Al 
  0.7704990  0.5190337  0.7273600

 Al 
  0.7440523  0.7605081  0.5099822

