32 
charge = 0 
 Al 
  0.0053388  0.9974754  0.0207799

 Al 
  0.0003898  0.2585763  0.2558673

 Al 
  0.2622630  0.0036793  0.2601678

 Al 
  0.2467836  0.2365922  0.9962106

 Al 
  0.5164299  0.9726016  0.0123707

 Al 
  0.4999344  0.2377147  0.2430932

 Al 
  0.7527028  0.0010358  0.2509356

 Al 
  0.7398607  0.2686278  0.9956636

 Al 
  0.9969977  0.4888359  0.0051000

 Al 
  0.0208703  0.7585058  0.2353138

 Al 
  0.2552312  0.4825417  0.2396824

 Al 
  0.2550455  0.7495050  0.9916712

 Al 
  0.9890129  0.9850007  0.4839216

 Al 
  0.0122407  0.2680932  0.7382741

 Al 
  0.2416143  0.0121665  0.7668086

 Al 
  0.2138137  0.2558153  0.4878459

 Al 
  0.9792659  0.5255049  0.4806940

 Al 
  0.0137072  0.7601703  0.7618051

 Al 
  0.2466029  0.4997772  0.7548921

 Al 
  0.2423048  0.7243528  0.4958566

 Al 
  0.5058834  0.5175907  0.9658099

 Al 
  0.4891144  0.7338597  0.2563821

 Al 
  0.7352458  0.5205274  0.2585441

 Al 
  0.7462378  0.7396552  0.9957638

 Al 
  0.4912987  0.9935931  0.5171266

 Al 
  0.5057720  0.2131701  0.7561321

 Al 
  0.7801247  0.0175288  0.7782276

 Al 
  0.7481746  0.2405698  0.5042684

 Al 
  0.4873038  0.4939953  0.5111405

 Al 
  0.5049676  0.7596579  0.7417059

 Al 
  0.7707168  0.5212786  0.7281941

 Al 
  0.7447515  0.7619982  0.5097508

