32 
charge = 0 
 Al 
  0.0083436  0.9991399  0.0217056

 Al 
  0.0043154  0.2609623  0.2597124

 Al 
  0.2603918  0.0054948  0.2574835

 Al 
  0.2409175  0.2366591  0.9976709

 Al 
  0.5188741  0.9712230  0.0087298

 Al 
  0.5001064  0.2434558  0.2440250

 Al 
  0.7543896  0.0032672  0.2557114

 Al 
  0.7348993  0.2714593  0.9952143

 Al 
  0.9984246  0.4862160  0.0082001

 Al 
  0.0161985  0.7552411  0.2333399

 Al 
  0.2518353  0.4844785  0.2379004

 Al 
  0.2535815  0.7498292  0.9930078

 Al 
  0.9885810  0.9841963  0.4884560

 Al 
  0.0112680  0.2631602  0.7432268

 Al 
  0.2363781  0.0112235  0.7657740

 Al 
  0.2144065  0.2513663  0.4866492

 Al 
  0.9827595  0.5258168  0.4800616

 Al 
  0.0100540  0.7627197  0.7617865

 Al 
  0.2498738  0.5023081  0.7612371

 Al 
  0.2416143  0.7271682  0.4909670

 Al 
  0.5055628  0.5206438  0.9683964

 Al 
  0.4884127  0.7275222  0.2511014

 Al 
  0.7367445  0.5201970  0.2600626

 Al 
  0.7501436  0.7383941  0.9899510

 Al 
  0.4929137  0.9903297  0.5094587

 Al 
  0.5103807  0.2100119  0.7597829

 Al 
  0.7769925  0.0153000  0.7761608

 Al 
  0.7482488  0.2424991  0.5007029

 Al 
  0.4892641  0.4915375  0.5117111

 Al 
  0.5083795  0.7584625  0.7420375

 Al 
  0.7699507  0.5243837  0.7314935

 Al 
  0.7457910  0.7653322  0.5082781

