32 
charge = 0 
 Al 
  0.0090775  0.9999666  0.0217477

 Al 
  0.0047708  0.2613583  0.2604005

 Al 
  0.2596765  0.0057336  0.2566358

 Al 
  0.2394485  0.2370390  0.9982897

 Al 
  0.5193295  0.9711994  0.0076271

 Al 
  0.5002735  0.2453703  0.2444136

 Al 
  0.7547386  0.0039169  0.2569823

 Al 
  0.7337038  0.2722006  0.9953208

 Al 
  0.9988429  0.4858002  0.0089476

 Al 
  0.0144597  0.7538723  0.2329501

 Al 
  0.2508316  0.4853980  0.2373100

 Al 
  0.2531261  0.7499245  0.9935412

 Al 
  0.9889882  0.9842038  0.4902245

 Al 
  0.0105304  0.2615960  0.7449384

 Al 
  0.2349550  0.0105218  0.7648990

 Al 
  0.2154485  0.2499765  0.4868930

 Al 
  0.9842038  0.5255990  0.4800245

 Al 
  0.0088906  0.7632778  0.7616133

 Al 
  0.2507599  0.5030543  0.7629709

 Al 
  0.2415289  0.7285345  0.4896169

 Al 
  0.5053784  0.5209742  0.9696624

 Al 
  0.4882110  0.7259529  0.2495186

 Al 
  0.7374313  0.5197193  0.2602643

 Al 
  0.7518514  0.7381516  0.9884189

 Al 
  0.4933134  0.9895067  0.5066469

 Al 
  0.5114932  0.2096815  0.7608794

 Al 
  0.7758935  0.0143483  0.7752017

 Al 
  0.7482179  0.2432677  0.4996275

 Al 
  0.4900277  0.4905487  0.5118212

 Al 
  0.5091951  0.7580875  0.7421922

 Al 
  0.7694037  0.5248503  0.7329315

 Al 
  0.7459965  0.7663680  0.5074910

