32 
charge = 0 
 Al 
  0.0094810  0.0005928  0.0217081

 Al 
  0.0048451  0.2615168  0.2607123

 Al 
  0.2591691  0.0057943  0.2560628

 Al 
  0.2385884  0.2373880  0.9987389

 Al 
  0.5195522  0.9712935  0.0069217

 Al 
  0.5004109  0.2466685  0.2446946

 Al 
  0.7549205  0.0043414  0.2577422

 Al 
  0.7330206  0.2726474  0.9954705

 Al 
  0.9991015  0.4856344  0.0093758

 Al 
  0.0132196  0.7528835  0.2327509

 Al 
  0.2501856  0.4860985  0.2369177

 Al 
  0.2528179  0.7499950  0.9939223

 Al 
  0.9894176  0.9842854  0.4914918

 Al 
  0.0099203  0.2605638  0.7461116

 Al 
  0.2340899  0.0099475  0.7641614

 Al 
  0.2163816  0.2490520  0.4872444

 Al 
  0.9852483  0.5253614  0.4800691

 Al 
  0.0081246  0.7635686  0.7614499

 Al 
  0.2512970  0.5035382  0.7640426

 Al 
  0.2415215  0.7295777  0.4887728

 Al 
  0.5052386  0.5210188  0.9706376

 Al 
  0.4880872  0.7250334  0.2484852

 Al 
  0.7379585  0.5192973  0.2603225

 Al 
  0.7531199  0.7380439  0.9875006

 Al 
  0.4935436  0.9890203  0.5046730

 Al 
  0.5121170  0.2096332  0.7615749

 Al 
  0.7751349  0.0136454  0.7744839

 Al 
  0.7481907  0.2438345  0.4989320

 Al 
  0.4905685  0.4898384  0.5118806

 Al 
  0.5096567  0.7578437  0.7422962

 Al 
  0.7689694  0.5250111  0.7339773

 Al 
  0.7461042  0.7670289  0.5068759

