32 
charge = 0 
 Al 
  0.0102297  0.0046013  0.0206859

 Al 
  0.0024962  0.2609673  0.2607334

 Al 
  0.2561717  0.0049317  0.2529070

 Al 
  0.2357903  0.2402851  0.0013960

 Al 
  0.5198183  0.9730508  0.0038575

 Al 
  0.5013019  0.2536285  0.2463628

 Al 
  0.7552856  0.0064997  0.2603695

 Al 
  0.7310900  0.2742859  0.9973702

 Al 
  0.0000619  0.4861207  0.0106591

 Al 
  0.0056755  0.7471326  0.2324118

 Al 
  0.2471004  0.4907802  0.2350960

 Al 
  0.2510284  0.7505817  0.9961809

 Al 
  0.9935622  0.9857420  0.4990310

 Al 
  0.0052918  0.2554242  0.7525519

 Al 
  0.2308500  0.0057559  0.7585404

 Al 
  0.2240520  0.2443072  0.4913742

 Al 
  0.9915400  0.5229036  0.4815059

 Al 
  0.0043933  0.7639053  0.7599599

 Al 
  0.2533105  0.5058673  0.7684174

 Al 
  0.2422392  0.7365935  0.4850911

 Al 
  0.5043513  0.5191661  0.9773279

 Al 
  0.4877382  0.7219036  0.2434174

 Al 
  0.7416390  0.5158557  0.2596815

 Al 
  0.7610663  0.7383211  0.9842632

 Al 
  0.4942330  0.9873113  0.4933060

 Al 
  0.5136652  0.2114784  0.7644919

 Al 
  0.7709000  0.0091505  0.7698196

 Al 
  0.7480595  0.2475063  0.4957044

 Al 
  0.4936934  0.4856443  0.5120737

 Al 
  0.5109834  0.7566667  0.7427169

 Al 
  0.7659794  0.5238404  0.7400908

 Al 
  0.7464036  0.7697923  0.5026063

