32 
charge = 0 
 Al 
  0.0102124  0.0028377  0.0212650

 Al 
  0.0039676  0.2614635  0.2610094

 Al 
  0.2574687  0.0055096  0.2542424

 Al 
  0.2365873  0.2389040  0.0002636

 Al 
  0.5198777  0.9720954  0.0049688

 Al 
  0.5009195  0.2507549  0.2456463

 Al 
  0.7552386  0.0056235  0.2595800

 Al 
  0.7315380  0.2737637  0.9963640

 Al 
  0.9997525  0.4856628  0.0103299

 Al 
  0.0089736  0.7495631  0.2324167

 Al 
  0.2483095  0.4886714  0.2357767

 Al 
  0.2518093  0.7502834  0.9952094

 Al 
  0.9915041  0.9849364  0.4957873

 Al 
  0.0074675  0.2574699  0.7498614

 Al 
  0.2319056  0.0076915  0.7611690

 Al 
  0.2203851  0.2462316  0.4892542

 Al 
  0.9888124  0.5241523  0.4806507

 Al 
  0.0058512  0.7640179  0.7607000

 Al 
  0.2526533  0.5049552  0.7668791

 Al 
  0.2417863  0.7334253  0.4864561

 Al 
  0.5047374  0.5203220  0.9742835

 Al 
  0.4878026  0.7228454  0.2454185

 Al 
  0.7399473  0.5175016  0.2601257

 Al 
  0.7575900  0.7380241  0.9852544

 Al 
  0.4940547  0.9878447  0.4981498

 Al 
  0.5133880  0.2103138  0.7634647

 Al 
  0.7726882  0.0111504  0.7719036

 Al 
  0.7480979  0.2458591  0.4969296

 Al 
  0.4923667  0.4874387  0.5120081

 Al 
  0.5106579  0.7571296  0.7425783

 Al 
  0.7673321  0.5247265  0.7375006

 Al 
  0.7463183  0.7688295  0.5045530

