32 
charge = 0 
 Al 
  0.0102557  0.0032622  0.0211413

 Al 
  0.0036632  0.2613744  0.2609722

 Al 
  0.2571556  0.0053933  0.2539181

 Al 
  0.2363447  0.2392233  0.0005408

 Al 
  0.5198839  0.9723034  0.0046730

 Al 
  0.5010148  0.2514665  0.2458208

 Al 
  0.7552621  0.0058413  0.2598139

 Al 
  0.7313821  0.2739134  0.9965843

 Al 
  0.9998404  0.4857445  0.0104364

 Al 
  0.0081815  0.7489654  0.2323981

 Al 
  0.2480038  0.4891713  0.2355972

 Al 
  0.2516224  0.7503478  0.9954458

 Al 
  0.9919707  0.9851084  0.4965757

 Al 
  0.0069625  0.2569551  0.7505223

 Al 
  0.2316073  0.0072373  0.7605564

 Al 
  0.2212316  0.2457514  0.4897295

 Al 
  0.9894708  0.5238738  0.4808252

 Al 
  0.0054799  0.7640241  0.7605329

 Al 
  0.2528377  0.5051879  0.7672937

 Al 
  0.2418779  0.7341753  0.4860997

 Al 
  0.5046433  0.5200844  0.9750012

 Al 
  0.4877741  0.7225682  0.2449124

 Al 
  0.7403433  0.5171229  0.2600391

 Al 
  0.7584278  0.7380724  0.9849636

 Al 
  0.4941129  0.9876912  0.4969717

 Al 
  0.5135030  0.2105515  0.7637431

 Al 
  0.7722514  0.0106740  0.7714086

 Al 
  0.7480843  0.2462502  0.4966116

 Al 
  0.4926910  0.4870019  0.5120254

 Al 
  0.5107668  0.7570120  0.7426179

 Al 
  0.7670115  0.5245594  0.7381355

 Al 
  0.7463430  0.7690931  0.5040939

