32 
charge = 0 
 Al 
  0.0101455  0.0024269  0.0213739

 Al 
  0.0042275  0.2615291  0.2610230

 Al 
  0.2577719  0.0056062  0.2545604

 Al 
  0.2368583  0.2386033  0.9999926

 Al 
  0.5198579  0.9719073  0.0052745

 Al 
  0.5008267  0.2500520  0.2454767

 Al 
  0.7552077  0.0054081  0.2593226

 Al 
  0.7317224  0.2736028  0.9961648

 Al 
  0.9996584  0.4856034  0.0102062

 Al 
  0.0097409  0.7501510  0.2324452

 Al 
  0.2486176  0.4881912  0.2359599

 Al 
  0.2519888  0.7502240  0.9949792

 Al 
  0.9910710  0.9847829  0.4950188

 Al 
  0.0079439  0.2579860  0.7492104

 Al 
  0.2322237  0.0081234  0.7617507

 Al 
  0.2195894  0.2467093  0.4888186

 Al 
  0.9881714  0.5244084  0.4804997

 Al 
  0.0062262  0.7639906  0.7608534

 Al 
  0.2524553  0.5047213  0.7664460

 Al 
  0.2417083  0.7327063  0.4868212

 Al 
  0.5048277  0.5205262  0.9735966

 Al 
  0.4878385  0.7231498  0.2459284

 Al 
  0.7395698  0.5178580  0.2601988

 Al 
  0.7567757  0.7379919  0.9855713

 Al 
  0.4939892  0.9880105  0.4993045

 Al 
  0.5132432  0.2101134  0.7631739

 Al 
  0.7731164  0.0116096  0.7723801

 Al 
  0.7481127  0.2454841  0.4972526

 Al 
  0.4920487  0.4878669  0.5119907

 Al 
  0.5105329  0.7572472  0.7425363

 Al 
  0.7676390  0.5248577  0.7368756

 Al 
  0.7462923  0.7685535  0.5049911

