32 
charge = 0 
 Al 
  0.0092384  0.0078065  0.0191896

 Al 
  0.9987018  0.2592780  0.2596456

 Al 
  0.2537139  0.0033315  0.2504369

 Al 
  0.2356344  0.2431253  0.0033451

 Al 
  0.5192330  0.9753341  0.0025568

 Al 
  0.5018662  0.2584810  0.2476115

 Al 
  0.7551458  0.0079650  0.2606641

 Al 
  0.7315442  0.2745768  0.9998193

 Al 
  0.0002983  0.4876516  0.0105292

 Al 
  0.9995025  0.7430895  0.2328486

 Al 
  0.2451648  0.4948456  0.2343312

 Al 
  0.2494579  0.7513873  0.9979234

 Al 
  0.9979927  0.9878286  0.5047498

 Al 
  0.0007710  0.2522016  0.7572249

 Al 
  0.2300579  0.0018984  0.7532795

 Al 
  0.2317039  0.2411811  0.4960819

 Al 
  0.9965880  0.5199903  0.4839785

 Al 
  0.0022487  0.7627741  0.7582632

 Al 
  0.2538377  0.5072348  0.7701302

 Al 
  0.2435387  0.7427355  0.4832187

 Al 
  0.5036793  0.5160574  0.9833214

 Al 
  0.4880476  0.7214618  0.2403582

 Al 
  0.7450559  0.5123880  0.2583907

 Al 
  0.7672962  0.7395290  0.9838040

 Al 
  0.4942181  0.9869499  0.4846406

 Al 
  0.5129338  0.2147567  0.7655574

 Al 
  0.7676588  0.0053265  0.7657690

 Al 
  0.7481387  0.2507215  0.4940795

 Al 
  0.4960150  0.4825120  0.5122123

 Al 
  0.5108460  0.7559168  0.7427937

 Al 
  0.7633372  0.5209853  0.7444891

 Al 
  0.7465323  0.7706797  0.4987575

