32 
charge = 0 
 Al 
  0.0089996  0.0082323  0.0189397

 Al 
  0.9981016  0.2589736  0.2594599

 Al 
  0.2533625  0.0030692  0.2500891

 Al 
  0.2357433  0.2435362  0.0035951

 Al 
  0.5191080  0.9756943  0.0024541

 Al 
  0.5019195  0.2591010  0.2477711

 Al 
  0.7551136  0.0081518  0.2605861

 Al 
  0.7317348  0.2745409  0.0002116

 Al 
  0.0003007  0.4879214  0.0104351

 Al 
  0.9986523  0.7425969  0.2329575

 Al 
  0.2449223  0.4954136  0.2342867

 Al 
  0.2492228  0.7515321  0.9981560

 Al 
  0.9986436  0.9881788  0.5054898

 Al 
  0.0001040  0.2518130  0.7578387

 Al 
  0.2300703  0.0013465  0.7525358

 Al 
  0.2328276  0.2407975  0.4967885

 Al 
  0.9972848  0.5195275  0.4844166

 Al 
  0.0020123  0.7625179  0.7579947

 Al 
  0.2538426  0.5073895  0.7702527

 Al 
  0.2437614  0.7435981  0.4830206

 Al 
  0.5035939  0.5155438  0.9841728

 Al 
  0.4881454  0.7215311  0.2400042

 Al 
  0.7455497  0.5118732  0.2581729

 Al 
  0.7681080  0.7397666  0.9838783

 Al 
  0.4941896  0.9869598  0.4834798

 Al 
  0.5127147  0.2153173  0.7656180

 Al 
  0.7672083  0.0047931  0.7651911

 Al 
  0.7481709  0.2511782  0.4939260

 Al 
  0.4963195  0.4821110  0.5122383

 Al 
  0.5107581  0.7558203  0.7427850

 Al 
  0.7629598  0.5204705  0.7450448

 Al 
  0.7465559  0.7707032  0.4982068

