32 
charge = 0 
 Al 
  0.0096493  0.0069180  0.0196673

 Al 
  0.9998824  0.2598473  0.2600045

 Al 
  0.2544230  0.0038414  0.2511435

 Al 
  0.2355131  0.2422937  0.0028167

 Al 
  0.5194545  0.9746287  0.0028266

 Al 
  0.5017351  0.2571692  0.2472724

 Al 
  0.7552040  0.0075689  0.2607309

 Al 
  0.7312509  0.2745879  0.9990545

 Al 
  0.0002710  0.4871405  0.0106616

 Al 
  0.0012524  0.7441575  0.2326655

 Al 
  0.2456809  0.4936822  0.2344735

 Al 
  0.2499245  0.7511200  0.9974395

 Al 
  0.9966809  0.9871591  0.5031867

 Al 
  0.0021088  0.2530432  0.7559415

 Al 
  0.2301297  0.0030172  0.7547980

 Al 
  0.2294453  0.2420066  0.4946698

 Al 
  0.9951587  0.5208913  0.4831580

 Al 
  0.0027808  0.7632184  0.7587879

 Al 
  0.2537758  0.5068907  0.7697899

 Al 
  0.2431142  0.7409745  0.4836716

 Al 
  0.5038600  0.5170487  0.9815888

 Al 
  0.4878942  0.7214222  0.2411378

 Al 
  0.7440585  0.5134164  0.2588090

 Al 
  0.7655859  0.7390983  0.9837570

 Al 
  0.4942602  0.9869747  0.4870489

 Al 
  0.5132951  0.2136887  0.7653643

 Al 
  0.7685758  0.0064192  0.7669398

 Al 
  0.7480904  0.2497946  0.4944508

 Al 
  0.4953789  0.4833634  0.5121652

 Al 
  0.5109735  0.7561197  0.7427949

 Al 
  0.7641020  0.5219469  0.7433060

 Al 
  0.7464915  0.7705510  0.4998738

