32 
charge = 0 
 Al 
  0.0068610  0.0107024  0.0170734

 Al 
  0.9940894  0.2566692  0.2582137

 Al 
  0.2510235  0.0012326  0.2478021

 Al 
  0.2372506  0.2461735  0.0050121

 Al 
  0.5180597  0.9782313  0.0023118

 Al 
  0.5020222  0.2626293  0.2486461

 Al 
  0.7548834  0.0092174  0.2593201

 Al 
  0.7337607  0.2737216  0.0029677

 Al 
  0.0001559  0.4899262  0.0093424

 Al 
  0.9934360  0.7400958  0.2340379

 Al 
  0.2434941  0.4989530  0.2345020

 Al 
  0.2475917  0.7527041  0.9995545

 Al 
  0.0027548  0.9907876  0.5096084

 Al 
  0.9957057  0.2497352  0.7614611

 Al 
  0.2310071  0.9978207  0.7479667

 Al 
  0.2401898  0.2387840  0.5014517

 Al 
  0.0016633  0.5162319  0.4878088

 Al 
  0.0009306  0.7602173  0.7560467

 Al 
  0.2534503  0.5081036  0.7702515

 Al 
  0.2454148  0.7489431  0.4821259

 Al 
  0.5031248  0.5118645  0.9895772

 Al 
  0.4892035  0.7228046  0.2382840

 Al 
  0.7487166  0.5084860  0.2566135

 Al 
  0.7726251  0.7417393  0.9852260

 Al 
  0.4939137  0.9874004  0.4765148

 Al 
  0.5106282  0.2195201  0.7654473

 Al 
  0.7643000  0.0014616  0.7614425

 Al 
  0.7485694  0.2540505  0.4935016

 Al 
  0.4980904  0.4799218  0.5124796

 Al 
  0.5098077  0.7552163  0.7426093

 Al 
  0.7604834  0.5164992  0.7481387

 Al 
  0.7467922  0.7701574  0.4946624

