32 
charge = 0 
 Al 
  0.0019776  0.0128966  0.0133818

 Al 
  0.9890575  0.2526261  0.2566952

 Al 
  0.2472972  0.9985954  0.2441921

 Al 
  0.2420536  0.2494777  0.0062695

 Al 
  0.5156156  0.9826457  0.0037238

 Al 
  0.5010247  0.2656378  0.2491560

 Al 
  0.7546334  0.0100317  0.2550220

 Al 
  0.7391726  0.2700015  0.0072336

 Al 
  0.9996300  0.4933580  0.0061891

 Al 
  0.9877469  0.7395352  0.2373917

 Al 
  0.2418655  0.5031917  0.2369239

 Al 
  0.2449470  0.7552485  0.0011064

 Al 
  0.0070690  0.9956611  0.5122482

 Al 
  0.9896540  0.2483268  0.7651243

 Al 
  0.2356888  0.9932268  0.7434125

 Al 
  0.2503601  0.2380018  0.5078536

 Al 
  0.0073251  0.5104982  0.4945089

 Al 
  0.0008849  0.7546446  0.7524590

 Al 
  0.2516113  0.5079699  0.7673754

 Al 
  0.2483095  0.7549045  0.4821717

 Al 
  0.5027313  0.5058475  0.9963888

 Al 
  0.4925177  0.7274120  0.2379622

 Al 
  0.7526830  0.5038303  0.2542671

 Al 
  0.7753403  0.7460435  0.9897678

 Al 
  0.4937652  0.9893557  0.4689731

 Al 
  0.5057039  0.2273006  0.7634152

 Al 
  0.7599092  0.9974123  0.7560554

 Al 
  0.7499703  0.2573932  0.4950720

 Al 
  0.4998193  0.4789738  0.5130748

 Al 
  0.5072719  0.7542486  0.7419608

 Al 
  0.7567620  0.5089711  0.7507252

 Al 
  0.7476016  0.7667281  0.4898978

