32 
charge = 0 
 Al 
  0.0010210  0.0130588  0.0126392

 Al 
  0.9884647  0.2519504  0.2565108

 Al 
  0.2466462  0.9982278  0.2435535

 Al 
  0.2430994  0.2499196  0.0063846

 Al 
  0.5150822  0.9834736  0.0040914

 Al 
  0.5007066  0.2658507  0.2491461

 Al 
  0.7546062  0.0100453  0.2540864

 Al 
  0.7402851  0.2690510  0.0079018

 Al 
  0.9995433  0.4939508  0.0055356

 Al 
  0.9871207  0.7398433  0.2382023

 Al 
  0.2416502  0.5037511  0.2375811

 Al 
  0.2445040  0.7557411  0.0012970

 Al 
  0.0074477  0.9965670  0.5122222

 Al 
  0.9887790  0.2482699  0.7655029

 Al 
  0.2368571  0.9925622  0.7430313

 Al 
  0.2518873  0.2381664  0.5087978

 Al 
  0.0081493  0.5094599  0.4957725

 Al 
  0.0010160  0.7535085  0.7517846

 Al 
  0.2512091  0.5077979  0.7665833

 Al 
  0.2488144  0.7555727  0.4823338

 Al 
  0.5026830  0.5048488  0.9973318

 Al 
  0.4932800  0.7284429  0.2381516

 Al 
  0.7532090  0.5031496  0.2539231

 Al 
  0.7752314  0.7468937  0.9907269

 Al 
  0.4938431  0.9898309  0.4680907

 Al 
  0.5047399  0.2287300  0.7629202

 Al 
  0.7591555  0.9968591  0.7551767

 Al 
  0.7503032  0.2577744  0.4955844

 Al 
  0.4999963  0.4791669  0.5131763

 Al 
  0.5067410  0.7540592  0.7418209

 Al 
  0.7561296  0.5076122  0.7509480

 Al 
  0.7477996  0.7658631  0.4891924

