32 
charge = 0 
 Al 
  0.0005260  0.0131194  0.0122469

 Al 
  0.9881961  0.2516113  0.2564229

 Al 
  0.2463121  0.9980508  0.2432256

 Al 
  0.2436501  0.2501324  0.0064341

 Al 
  0.5147963  0.9839067  0.0042857

 Al 
  0.5005297  0.2659299  0.2491325

 Al 
  0.7545926  0.0100366  0.2535951

 Al 
  0.7408643  0.2685350  0.0082323

 Al 
  0.9995013  0.4942528  0.0051953

 Al 
  0.9868385  0.7400389  0.2386404

 Al 
  0.2415474  0.5040208  0.2379375

 Al 
  0.2442812  0.7559935  0.0013873

 Al 
  0.0076023  0.9970336  0.5121652

 Al 
  0.9883545  0.2482550  0.7656713

 Al 
  0.2374858  0.9922343  0.7428791

 Al 
  0.2526434  0.2382790  0.5092619

 Al 
  0.0085540  0.5089241  0.4964259

 Al 
  0.0010915  0.7529169  0.7514356

 Al 
  0.2509987  0.5076964  0.7661539

 Al 
  0.2490706  0.7558772  0.4824303

 Al 
  0.5026570  0.5043451  0.9977922

 Al 
  0.4936872  0.7289887  0.2382691

 Al 
  0.7534602  0.5028155  0.2537548

 Al 
  0.7751188  0.7473368  0.9912257

 Al 
  0.4938963  0.9900871  0.4676798

 Al 
  0.5042424  0.2294664  0.7626578

 Al 
  0.7587694  0.9965893  0.7547287

 Al 
  0.7504802  0.2579476  0.4958678

 Al 
  0.5000755  0.4793042  0.5132258

 Al 
  0.5064626  0.7539590  0.7417479

 Al 
  0.7558054  0.5069167  0.7510445

 Al 
  0.7479060  0.7653978  0.4888458

