32 
charge = 0 
 Al 
  0.0015049  0.0129845  0.0130167

 Al 
  0.9887518  0.2522883  0.2566012

 Al 
  0.2469742  0.9984097  0.2438753

 Al 
  0.2425684  0.2497017  0.0063301

 Al 
  0.5153557  0.9830541  0.0039033

 Al 
  0.5008712  0.2657529  0.2491535

 Al 
  0.7546198  0.0100428  0.2545617

 Al 
  0.7397208  0.2695399  0.0075689

 Al 
  0.9995854  0.4936525  0.0058660

 Al 
  0.9874239  0.7396750  0.2377865

 Al 
  0.2417566  0.5034751  0.2372432

 Al 
  0.2447267  0.7554923  0.0012029

 Al 
  0.0072694  0.9961091  0.5122506

 Al 
  0.9892134  0.2482934  0.7653198

 Al 
  0.2362581  0.9928927  0.7432083

 Al 
  0.2511262  0.2380736  0.5083288

 Al 
  0.0077397  0.5099847  0.4951339

 Al 
  0.0009467  0.7540852  0.7521261

 Al 
  0.2514133  0.5078895  0.7669905

 Al 
  0.2485607  0.7552485  0.4822472

 Al 
  0.5027078  0.5053500  0.9968640

 Al 
  0.4928902  0.7279182  0.2380501

 Al 
  0.7529503  0.5034887  0.2540939

 Al 
  0.7753044  0.7464630  0.9902406

 Al 
  0.4937986  0.9895871  0.4685214

 Al 
  0.5052275  0.2280085  0.7631726

 Al 
  0.7595354  0.9971338  0.7556185

 Al 
  0.7501324  0.2575900  0.4953195

 Al 
  0.4999109  0.4790567  0.5131268

 Al 
  0.5070108  0.7541557  0.7418915

 Al 
  0.7564477  0.5082966  0.7508415

 Al 
  0.7476981  0.7663074  0.4895438

