32 
charge = 0 
 Al 
  0.9956178  0.0130526  0.0079885

 Al 
  0.9867247  0.2486176  0.2557757

 Al 
  0.2430375  0.9967514  0.2400574

 Al 
  0.2493391  0.2518415  0.0066940

 Al 
  0.5115613  0.9884622  0.0062274

 Al 
  0.4984332  0.2658594  0.2488664

 Al 
  0.7544218  0.0094587  0.2485842

 Al 
  0.7466809  0.2626343  0.0110935

 Al 
  0.9991869  0.4971610  0.0018848

 Al 
  0.9852297  0.7430115  0.2436142

 Al 
  0.2407888  0.5061643  0.2419794

 Al 
  0.2422590  0.7584154  0.0020407

 Al 
  0.0079662  0.0017016  0.5103881

 Al 
  0.9849574  0.2484605  0.7665239

 Al 
  0.2444520  0.9894226  0.7426427

 Al 
  0.2591901  0.2401614  0.5132147

 Al 
  0.0120204  0.5035147  0.5029058

 Al 
  0.0019096  0.7469902  0.7479221

 Al 
  0.2489790  0.5062782  0.7613286

 Al 
  0.2515197  0.7577620  0.4837768

 Al 
  0.5023068  0.4996943  0.0016361

 Al 
  0.4980855  0.7347173  0.2398619

 Al 
  0.7554688  0.4999282  0.2523501

 Al 
  0.7724160  0.7518353  0.9961982

 Al 
  0.4949359  0.9929966  0.4648780

 Al 
  0.4993664  0.2367420  0.7599352

 Al 
  0.7549329  0.9942726  0.7503911

 Al 
  0.7523947  0.2588733  0.4991510

 Al 
  0.5005383  0.4818313  0.5134746

 Al 
  0.5035753  0.7528810  0.7410561

 Al 
  0.7526335  0.5002822  0.7516212

 Al 
  0.7490731  0.7602260  0.4859351

