32 
charge = 0 
 Al 
  0.9995000  0.0132011  0.0114165

 Al 
  0.9877172  0.2509331  0.2562596

 Al 
  0.2456265  0.9977155  0.2425536

 Al 
  0.2448060  0.2505445  0.0065207

 Al 
  0.5141837  0.9848151  0.0046928

 Al 
  0.5001411  0.2660363  0.2490929

 Al 
  0.7545641  0.0099884  0.2525679

 Al 
  0.7420697  0.2674162  0.0088894

 Al 
  0.9994221  0.4948691  0.0044924

 Al 
  0.9863336  0.7405128  0.2395871

 Al 
  0.2413494  0.5045419  0.2387097

 Al 
  0.2438320  0.7565145  0.0015569

 Al 
  0.0078424  0.9980001  0.5119610

 Al 
  0.9875266  0.2482526  0.7659646

 Al 
  0.2388372  0.9915871  0.7426526

 Al 
  0.2541409  0.2385637  0.5101777

 Al 
  0.0093547  0.5078140  0.4977761

 Al 
  0.0012574  0.7516868  0.7507128

 Al 
  0.2505668  0.5074600  0.7652270

 Al 
  0.2495953  0.7564291  0.4826568

 Al 
  0.5026001  0.5033278  0.9986919

 Al 
  0.4945535  0.7301371  0.2385426

 Al 
  0.7539453  0.5021558  0.2534256

 Al 
  0.7747797  0.7482587  0.9922628

 Al 
  0.4940399  0.9906391  0.4669162

 Al 
  0.5032139  0.2309861  0.7621046

 Al 
  0.7579736  0.9960571  0.7538166

 Al 
  0.7508576  0.2582533  0.4964866

 Al 
  0.5002166  0.4796631  0.5133149

 Al 
  0.5058784  0.7537473  0.7415982

 Al 
  0.7551408  0.5054973  0.7512140

 Al 
  0.7481338  0.7643966  0.4881602

