32 
charge = 0 
 Al 
  0.0000186  0.0131664  0.0118398

 Al 
  0.9879461  0.2512722  0.2563400

 Al 
  0.2459717  0.9978801  0.2428927

 Al 
  0.2442193  0.2503416  0.0064799

 Al 
  0.5144968  0.9843535  0.0044862

 Al 
  0.5003416  0.2659918  0.2491151

 Al 
  0.7545790  0.0100181  0.2530890

 Al 
  0.7414596  0.2679904  0.0085615

 Al 
  0.9994604  0.4945584  0.0048475

 Al 
  0.9865762  0.7402616  0.2391020

 Al 
  0.2414472  0.5042844  0.2383137

 Al 
  0.2440572  0.7562522  0.0014739

 Al 
  0.0077335  0.9975113  0.5120774

 Al 
  0.9879362  0.2482501  0.7658247

 Al 
  0.2381466  0.9919101  0.7427528

 Al 
  0.2533934  0.2384102  0.5097223

 Al 
  0.0089562  0.5083758  0.4970930

 Al 
  0.0011720  0.7523093  0.7510792

 Al 
  0.2507846  0.5075838  0.7657010

 Al 
  0.2493317  0.7561618  0.4825380

 Al 
  0.5026298  0.5038389  0.9982451

 Al 
  0.4941117  0.7295530  0.2383991

 Al 
  0.7537065  0.5024850  0.2535889

 Al 
  0.7749691  0.7477910  0.9917380

 Al 
  0.4939619  0.9903569  0.4672887

 Al 
  0.5037337  0.2302188  0.7623855

 Al 
  0.7583746  0.9963220  0.7542758

 Al 
  0.7506658  0.2581060  0.4961685

 Al 
  0.5001497  0.4794688  0.5132716

 Al 
  0.5061754  0.7538550  0.7416737

 Al 
  0.7554762  0.5062126  0.7511336

 Al 
  0.7480174  0.7649089  0.4885006

