32 
charge = 0 
 Al 
  0.9961908  0.0131157  0.0085256

 Al 
  0.9867940  0.2489345  0.2558363

 Al 
  0.2434211  0.9968653  0.2404200

 Al 
  0.2486585  0.2516695  0.0066816

 Al 
  0.5119808  0.9878979  0.0060047

 Al 
  0.4987067  0.2659361  0.2489023

 Al 
  0.7544478  0.0095713  0.2491795

 Al 
  0.7459977  0.2633917  0.0107940

 Al 
  0.9992166  0.4968244  0.0022610

 Al 
  0.9853213  0.7425796  0.2429793

 Al 
  0.2408544  0.5059539  0.2414645

 Al 
  0.2424781  0.7581444  0.0019838

 Al 
  0.0080132  0.0011485  0.5106864

 Al 
  0.9852841  0.2484134  0.7664930

 Al 
  0.2435783  0.9897171  0.7425734

 Al 
  0.2584971  0.2398805  0.5128026

 Al 
  0.0116578  0.5041656  0.5021459

 Al 
  0.0018167  0.7476845  0.7483417

 Al 
  0.2492055  0.5064811  0.7619388

 Al 
  0.2512388  0.7576271  0.4835874

 Al 
  0.5023588  0.5002129  0.0012376

 Al 
  0.4975410  0.7340194  0.2396466

 Al 
  0.7552671  0.5002388  0.2524962

 Al 
  0.7728603  0.7512994  0.9956190

 Al 
  0.4947688  0.9926217  0.4651045

 Al 
  0.4999282  0.2358881  0.7602606

 Al 
  0.7553896  0.9945201  0.7509009

 Al 
  0.7521583  0.2588312  0.4987303

 Al 
  0.5005099  0.4814353  0.5134721

 Al 
  0.5039231  0.7530172  0.7411316

 Al 
  0.7530060  0.5010383  0.7515754

 Al 
  0.7489283  0.7608769  0.4862284

