32 
charge = 0 
 Al 
  0.9933493  0.0126652  0.0057250

 Al 
  0.9867135  0.2474395  0.2555529

 Al 
  0.2414930  0.9963999  0.2386367

 Al 
  0.2520766  0.2524665  0.0067101

 Al 
  0.5097644  0.9908222  0.0070801

 Al 
  0.4972836  0.2653928  0.2487389

 Al 
  0.7542844  0.0088845  0.2461945

 Al 
  0.7494010  0.2594550  0.0122073

 Al 
  0.9990793  0.4985050  0.0004319

 Al 
  0.9851022  0.7449322  0.2462824

 Al 
  0.2405896  0.5069167  0.2441414

 Al 
  0.2414249  0.7594476  0.0022313

 Al 
  0.0075912  0.0039367  0.5090132

 Al 
  0.9838387  0.2486869  0.7664732

 Al 
  0.2480756  0.9883323  0.7431303

 Al 
  0.2617791  0.2414212  0.5147406

 Al 
  0.0133694  0.5008242  0.5059502

 Al 
  0.0022326  0.7442379  0.7462143

 Al 
  0.2481177  0.5053760  0.7587978

 Al 
  0.2526323  0.7581159  0.4846121

 Al 
  0.5020630  0.4976858  0.0031187

 Al 
  0.5003242  0.7375736  0.2407665

 Al 
  0.7562163  0.4987340  0.2517945

 Al 
  0.7703369  0.7539911  0.9985050

 Al 
  0.4957193  0.9945906  0.4642245

 Al 
  0.4971573  0.2401738  0.7586357

 Al 
  0.7530593  0.9933221  0.7483095

 Al 
  0.7533625  0.2588795  0.5009170

 Al 
  0.5006064  0.4836679  0.5133880

 Al 
  0.5021707  0.7523081  0.7407777

 Al 
  0.7511212  0.4973071  0.7517945

 Al 
  0.7496634  0.7575083  0.4849042

