32 
charge = 0 
 Al 
  0.9903185  0.0117123  0.0021880

 Al 
  0.9875316  0.2460695  0.2552931

 Al 
  0.2392914  0.9962069  0.2367531

 Al 
  0.2558759  0.2531941  0.0066346

 Al 
  0.5068425  0.9944854  0.0081333

 Al 
  0.4955188  0.2642963  0.2486585

 Al 
  0.7539751  0.0076902  0.2428692

 Al 
  0.7531063  0.2546087  0.0134832

 Al 
  0.9989456  0.5004109  0.9985867

 Al 
  0.9856047  0.7481746  0.2503440

 Al 
  0.2405091  0.5077187  0.2474717

 Al 
  0.2404077  0.7606975  0.0023885

 Al 
  0.0066185  0.0071370  0.5066469

 Al 
  0.9828486  0.2490904  0.7658631

 Al 
  0.2534899  0.9870848  0.7443283

 Al 
  0.2648693  0.2435548  0.5165128

 Al 
  0.0149522  0.4967081  0.5102136

 Al 
  0.0024826  0.7405017  0.7437095

 Al 
  0.2470806  0.5038142  0.7550208

 Al 
  0.2541966  0.7581704  0.4860118

 Al 
  0.5016385  0.4950869  0.0049267

 Al 
  0.5036149  0.7417702  0.2420907

 Al 
  0.7571395  0.4971412  0.2510507

 Al 
  0.7665598  0.7569898  0.0016905

 Al 
  0.4971548  0.9971128  0.4640550

 Al 
  0.4942490  0.2450473  0.7568425

 Al 
  0.7502190  0.9920784  0.7451871

 Al 
  0.7547696  0.2584315  0.5036186

 Al 
  0.5005928  0.4870006  0.5129239

 Al 
  0.5001881  0.7513737  0.7404992

 Al 
  0.7488973  0.4932825  0.7520667

 Al 
  0.7505086  0.7533587  0.4839402

