32 
charge = 0 
 Al 
  0.9939075  0.0127815  0.0063041

 Al 
  0.9866752  0.2477179  0.2556049

 Al 
  0.2418779  0.9964717  0.2389832

 Al 
  0.2513972  0.2523192  0.0067113

 Al 
  0.5102297  0.9902195  0.0068747

 Al 
  0.4975769  0.2655314  0.2487674

 Al 
  0.7543240  0.0090466  0.2467873

 Al 
  0.7487303  0.2602668  0.0119450

 Al 
  0.9991040  0.4981709  0.0007834

 Al 
  0.9850985  0.7444260  0.2456017

 Al 
  0.2406292  0.5067435  0.2435894

 Al 
  0.2416242  0.7592000  0.0021905

 Al 
  0.0077100  0.0033785  0.5093795

 Al 
  0.9840874  0.2486251  0.7665128

 Al 
  0.2471586  0.9885884  0.7429805

 Al 
  0.2611641  0.2410896  0.5143805

 Al 
  0.0130501  0.5015061  0.5051953

 Al 
  0.0021595  0.7449161  0.7466437

 Al 
  0.2483231  0.5056148  0.7594389

 Al 
  0.2523576  0.7580528  0.4843943

 Al 
  0.5021274  0.4981734  0.0027660

 Al 
  0.4997599  0.7368546  0.2405376

 Al 
  0.7560381  0.4990248  0.2519281

 Al 
  0.7708975  0.7534553  0.9979357

 Al 
  0.4955076  0.9941797  0.4643495

 Al 
  0.4976981  0.2393198  0.7589575

 Al 
  0.7535320  0.9935535  0.7488330

 Al 
  0.7531187  0.2589030  0.5004666

 Al 
  0.5005965  0.4831741  0.5134251

 Al 
  0.5025209  0.7524553  0.7408420

 Al 
  0.7515012  0.4980372  0.7517524

 Al 
  0.7495149  0.7582001  0.4851381

