32 
charge = 0 
 Al 
  0.9873385  0.0095391  0.9969308

 Al 
  0.9905277  0.2451141  0.2550406

 Al 
  0.2365737  0.9966598  0.2348003

 Al 
  0.2600948  0.2538241  0.0063301

 Al 
  0.5022759  0.9998404  0.0089748

 Al 
  0.4931340  0.2620910  0.2489518

 Al 
  0.7532560  0.0053661  0.2391750

 Al 
  0.7570727  0.2481585  0.0142580

 Al 
  0.9987451  0.5028402  0.9968801

 Al 
  0.9877494  0.7531904  0.2558116

 Al 
  0.2409386  0.5081295  0.2521360

 Al 
  0.2395760  0.7615749  0.0023996

 Al 
  0.0047461  0.0111096  0.5030890

 Al 
  0.9830553  0.2496547  0.7639312

 Al 
  0.2606393  0.9863621  0.7466103

 Al 
  0.2673234  0.2468306  0.5177009

 Al 
  0.0160301  0.4906614  0.5151886

 Al 
  0.0021187  0.7364623  0.7403953

 Al 
  0.2463937  0.5012388  0.7501559

 Al 
  0.2562200  0.7575640  0.4882555

 Al 
  0.5010334  0.4925882  0.0066927

 Al 
  0.5077447  0.7472786  0.2436068

 Al 
  0.7580714  0.4952280  0.2500928

 Al 
  0.7601059  0.7602619  0.0053537

 Al 
  0.4996040  0.0008217  0.4656762

 Al 
  0.4914200  0.2511373  0.7547993

 Al 
  0.7460683  0.9907344  0.7407467

 Al 
  0.7564502  0.2569489  0.5072905

 Al 
  0.5004950  0.4927454  0.5113757

 Al 
  0.4978442  0.7497772  0.7405475

 Al 
  0.7458480  0.4887815  0.7526595

 Al 
  0.7515074  0.7474853  0.4841406

