32 
charge = 0 
 Al 
  0.9875662  0.0098287  0.9975187

 Al 
  0.9900945  0.2451549  0.2550641

 Al 
  0.2368373  0.9965658  0.2349636

 Al 
  0.2597248  0.2537758  0.0063747

 Al 
  0.5027944  0.9992513  0.0089278

 Al 
  0.4933778  0.2623608  0.2488899

 Al 
  0.7533513  0.0056482  0.2394968

 Al 
  0.7567336  0.2488119  0.0142419

 Al 
  0.9987711  0.5025927  0.9970051

 Al 
  0.9874338  0.7526360  0.2552497

 Al 
  0.2408569  0.5081283  0.2516410

 Al 
  0.2396268  0.7615427  0.0024083

 Al 
  0.0049651  0.0107198  0.5034714

 Al 
  0.9829328  0.2496015  0.7641973

 Al 
  0.2599092  0.9863695  0.7463442

 Al 
  0.2671761  0.2464717  0.5176600

 Al 
  0.0159930  0.4913321  0.5147295

 Al 
  0.0022066  0.7368125  0.7407368

 Al 
  0.2464123  0.5015358  0.7506373

 Al 
  0.2560096  0.7576568  0.4879956

 Al 
  0.5010952  0.4927801  0.0065418

 Al 
  0.5073425  0.7467143  0.2434706

 Al 
  0.7579922  0.4954210  0.2501943

 Al 
  0.7608621  0.7599834  0.0050171

 Al 
  0.4993193  0.0004171  0.4653829

 Al 
  0.4916366  0.2505309  0.7549886

 Al 
  0.7465299  0.9908544  0.7412306

 Al 
  0.7562955  0.2571543  0.5069143

 Al 
  0.5005025  0.4920697  0.5116046

 Al 
  0.4980645  0.7499728  0.7405104

 Al 
  0.7461735  0.4891911  0.7525754

 Al 
  0.7514133  0.7481201  0.4840144

