32 
charge = 0 
 Al 
  0.9869598  0.0089179  0.9957378

 Al 
  0.9914744  0.2450819  0.2549948

 Al 
  0.2360725  0.9968801  0.2345119

 Al 
  0.2607606  0.2539082  0.0062311

 Al 
  0.5012239  0.0010247  0.0090354

 Al 
  0.4926588  0.2615353  0.2491015

 Al 
  0.7530531  0.0047844  0.2385959

 Al 
  0.7576778  0.2468925  0.0142369

 Al 
  0.9986919  0.5033278  0.9966759

 Al 
  0.9884399  0.7542981  0.2569093

 Al 
  0.2411329  0.5080974  0.2531162

 Al 
  0.2395030  0.7615873  0.0023761

 Al 
  0.0043018  0.0118558  0.5023378

 Al 
  0.9833783  0.2497488  0.7633595

 Al 
  0.2620600  0.9864054  0.7471474

 Al 
  0.2675301  0.2475472  0.5177145

 Al 
  0.0160388  0.4893087  0.5160376

 Al 
  0.0019034  0.7358336  0.7397258

 Al 
  0.2464012  0.5006361  0.7492339

 Al 
  0.2566358  0.7573660  0.4887914

 Al 
  0.5009183  0.4922665  0.0069700

 Al 
  0.5085045  0.7483813  0.2438555

 Al 
  0.7582162  0.4948517  0.2498899

 Al 
  0.7585565  0.7607569  0.0059787

 Al 
  0.5001844  0.0016348  0.4663556

 Al 
  0.4910574  0.2523093  0.7544453

 Al 
  0.7451339  0.9905116  0.7397777

 Al 
  0.7567311  0.2565071  0.5080206

 Al 
  0.5004839  0.4941327  0.5108707

 Al 
  0.4974296  0.7493701  0.7406490

 Al 
  0.7451995  0.4880253  0.7528439

 Al 
  0.7516856  0.7462168  0.4844748

