32 
charge = 0 
 Al 
  0.9894770  0.0113064  0.0010148

 Al 
  0.9880204  0.2457415  0.2552250

 Al 
  0.2386206  0.9962329  0.2362247

 Al 
  0.2569848  0.2533785  0.0065851

 Al 
  0.5058425  0.9956945  0.0083993

 Al 
  0.4949545  0.2638533  0.2486758

 Al 
  0.7538426  0.0072199  0.2418977

 Al 
  0.7541669  0.2530667  0.0137778

 Al 
  0.9989035  0.5009950  0.9980929

 Al 
  0.9859450  0.7492909  0.2516398

 Al 
  0.2405450  0.5078907  0.2485521

 Al 
  0.2401490  0.7610032  0.0024108

 Al 
  0.0062274  0.0081135  0.5058376

 Al 
  0.9827187  0.2492278  0.7655302

 Al 
  0.2551965  0.9867989  0.7448047

 Al 
  0.2656416  0.2442874  0.5169348

 Al 
  0.0153334  0.4953505  0.5114821

 Al 
  0.0024838  0.7394300  0.7429224

 Al 
  0.2468306  0.5032597  0.7538389

 Al 
  0.2546767  0.7580899  0.4864957

 Al 
  0.5014962  0.4943790  0.0054081

 Al 
  0.5046310  0.7430845  0.2424855

 Al 
  0.7573920  0.4966722  0.2508255

 Al 
  0.7651911  0.7578610  0.0026286

 Al 
  0.4976771  0.9979518  0.4642208

 Al 
  0.4934496  0.2465336  0.7563190

 Al 
  0.7492884  0.9917257  0.7441748

 Al 
  0.7551965  0.2581766  0.5044874

 Al 
  0.5005718  0.4882135  0.5126726

 Al 
  0.4995953  0.7510433  0.7404572

 Al 
  0.7481907  0.4921167  0.7521732

 Al 
  0.7507611  0.7520123  0.4838065

