32 
charge = 0 
 Al 
  0.9878199  0.0101035  0.9981028

 Al 
  0.9896862  0.2452119  0.2550876

 Al 
  0.2371108  0.9964841  0.2351406

 Al 
  0.2593300  0.2537238  0.0064168

 Al 
  0.5033080  0.9986634  0.0088684

 Al 
  0.4936278  0.2626244  0.2488367

 Al 
  0.7534429  0.0059242  0.2398421

 Al 
  0.7563697  0.2494815  0.0142085

 Al 
  0.9987946  0.5023402  0.9971462

 Al 
  0.9871380  0.7520803  0.2546767

 Al 
  0.2407826  0.5081172  0.2511410

 Al 
  0.2396886  0.7614932  0.0024145

 Al 
  0.0051829  0.0103176  0.5038562

 Al 
  0.9828338  0.2495446  0.7644523

 Al 
  0.2591654  0.9863955  0.7460806

 Al 
  0.2669992  0.2461103  0.5175957

 Al 
  0.0159349  0.4920004  0.5142481

 Al 
  0.0022821  0.7371863  0.7410846

 Al 
  0.2464470  0.5018291  0.7511348

 Al 
  0.2557967  0.7577447  0.4877395

 Al 
  0.5011571  0.4929917  0.0063809

 Al 
  0.5069279  0.7461400  0.2433271

 Al 
  0.7579068  0.4956166  0.2502958

 Al 
  0.7616071  0.7596815  0.0046631

 Al 
  0.4990384  0.0000099  0.4651181

 Al 
  0.4918779  0.2499084  0.7551866

 Al 
  0.7469890  0.9909819  0.7417145

 Al 
  0.7561334  0.2573499  0.5065294

 Al 
  0.5005124  0.4914039  0.5118175

 Al 
  0.4982946  0.7501609  0.7404819

 Al 
  0.7465014  0.4896218  0.7524974

 Al 
  0.7513143  0.7487575  0.4839142

