32 
charge = 0 
 Al 
  0.9865353  0.0051656  0.9897493

 Al 
  0.9971982  0.2457799  0.2546953

 Al 
  0.2342471  0.9985261  0.2338869

 Al 
  0.2625068  0.2541990  0.0055814

 Al 
  0.4960831  0.0067076  0.0086902

 Al 
  0.4907294  0.2587223  0.2502686

 Al 
  0.7519405  0.0018910  0.2371133

 Al 
  0.7592681  0.2417591  0.0132060

 Al 
  0.9983503  0.5054911  0.9965138

 Al 
  0.9926303  0.7593622  0.2615477

 Al 
  0.2425647  0.5074056  0.2575033

 Al 
  0.2396775  0.7606789  0.0021657

 Al 
  0.0021781  0.0147431  0.4991387

 Al 
  0.9862383  0.2498948  0.7601369

 Al 
  0.2680053  0.9876516  0.7495805

 Al 
  0.2670548  0.2507363  0.5165276

 Al 
  0.0148743  0.4827744  0.5187256

 Al 
  0.0002339  0.7341716  0.7368101

 Al 
  0.2472650  0.4976981  0.7457403

 Al 
  0.2585008  0.7563722  0.4916069

 Al 
  0.5004901  0.4918234  0.0079154

 Al 
  0.5112358  0.7531261  0.2447156

 Al 
  0.7586506  0.4931451  0.2489233

 Al 
  0.7507029  0.7618979  0.0079625

 Al 
  0.5030593  0.0054168  0.4712081

 Al 
  0.4906180  0.2571370  0.7531372

 Al 
  0.7405314  0.9897381  0.7351938

 Al 
  0.7574996  0.2539528  0.5109240

 Al 
  0.5005668  0.5011683  0.5075825

 Al 
  0.4959618  0.7471029  0.7416613

 Al 
  0.7421910  0.4855156  0.7540802

 Al 
  0.7524083  0.7402455  0.4875080

