32 
charge = 0 
 Al 
  0.9865106  0.0074712  0.9932355

 Al 
  0.9937045  0.2452168  0.2548921

 Al 
  0.2351715  0.9974692  0.2340948

 Al 
  0.2617977  0.2540444  0.0059886

 Al 
  0.4990359  0.0034528  0.0090119

 Al 
  0.4917603  0.2603522  0.2495112

 Al 
  0.7525989  0.0035543  0.2377048

 Al 
  0.7586110  0.2445114  0.0139770

 Al 
  0.9985632  0.5042820  0.9964482

 Al 
  0.9900710  0.7565244  0.2590156

 Al 
  0.2416452  0.5079031  0.2550542

 Al 
  0.2394770  0.7613930  0.0023031

 Al 
  0.0033860  0.0132283  0.5008799

 Al 
  0.9843485  0.2498812  0.7620625

 Al 
  0.2647753  0.9867346  0.7482290

 Al 
  0.2675994  0.2489691  0.5174509

 Al 
  0.0157814  0.4865192  0.5174645

 Al 
  0.0013106  0.7348572  0.7384226

 Al 
  0.2466091  0.4993800  0.7475509

 Al 
  0.2574576  0.7569353  0.4899423

 Al 
  0.5007091  0.4918667  0.0074390

 Al 
  0.5098597  0.7505124  0.2442800

 Al 
  0.7584526  0.4941080  0.2494765

 Al 
  0.7552733  0.7614883  0.0070306

 Al 
  0.5014022  0.0032783  0.4681167

 Al 
  0.4906180  0.2545233  0.7538166

 Al 
  0.7431909  0.9901280  0.7378038

 Al 
  0.7571816  0.2554948  0.5093894

 Al 
  0.5004901  0.4970781  0.5096381

 Al 
  0.4967019  0.7484617  0.7409732

 Al 
  0.7438926  0.4867370  0.7532993

 Al 
  0.7520148  0.7436414  0.4854958

