32 
charge = 0 
 Al 
  0.9866207  0.0046235  0.9889894

 Al 
  0.9979989  0.2459495  0.2546409

 Al 
  0.2340924  0.9987860  0.2338919

 Al 
  0.2625637  0.2542337  0.0054824

 Al 
  0.4954606  0.0073969  0.0085837

 Al 
  0.4905376  0.2583771  0.2504567

 Al 
  0.7517982  0.0015432  0.2370687

 Al 
  0.7593312  0.2412356  0.0129870

 Al 
  0.9982996  0.5057386  0.9965744

 Al 
  0.9932169  0.7599364  0.2620452

 Al 
  0.2427912  0.5072694  0.2580008

 Al 
  0.2397517  0.7604661  0.0021311

 Al 
  0.0019281  0.0150191  0.4988045

 Al 
  0.9867160  0.2498701  0.7597099

 Al 
  0.2686327  0.9879103  0.7498465

 Al 
  0.2668630  0.2510866  0.5162566

 Al 
  0.0146045  0.4819848  0.5189038

 Al 
  0.9999691  0.7341097  0.7364846

 Al 
  0.2474543  0.4973467  0.7454198

 Al 
  0.2587137  0.7562621  0.4919781

 Al 
  0.5004505  0.4918779  0.0080021

 Al 
  0.5114648  0.7536496  0.2447973

 Al 
  0.7586766  0.4929422  0.2488070

 Al 
  0.7497154  0.7619078  0.0080924

 Al 
  0.5034107  0.0058574  0.4719605

 Al 
  0.4906948  0.2576469  0.7530098

 Al 
  0.7399609  0.9896688  0.7346480

 Al 
  0.7575244  0.2536050  0.5112037

 Al 
  0.5005928  0.5020469  0.5070912

 Al 
  0.4958368  0.7467960  0.7418432

 Al 
  0.7418395  0.4853225  0.7542708

 Al 
  0.7524900  0.7395327  0.4880192

