32 
charge = 0 
 Al 
  0.9870390  0.0028254  0.9865774

 Al 
  0.0006015  0.2465757  0.2544305

 Al 
  0.2337050  0.9996646  0.2340107

 Al 
  0.2625415  0.2543612  0.0051483

 Al 
  0.4935412  0.0095404  0.0081766

 Al 
  0.4899993  0.2573066  0.2511002

 Al 
  0.7513539  0.0004802  0.2371009

 Al 
  0.7593832  0.2397233  0.0121937

 Al 
  0.9981313  0.5064972  0.9968566

 Al 
  0.9951191  0.7616628  0.2635179

 Al 
  0.2435634  0.5067930  0.2595082

 Al 
  0.2400438  0.7596753  0.0020135

 Al 
  0.0011608  0.0157839  0.4978392

 Al 
  0.9883582  0.2497314  0.7583610

 Al 
  0.2704668  0.9888483  0.7506213

 Al 
  0.2661193  0.2521212  0.5152604

 Al 
  0.0136095  0.4795443  0.5192726

 Al 
  0.9990817  0.7340849  0.7355020

 Al 
  0.2481362  0.4962675  0.7445485

 Al 
  0.2593584  0.7559453  0.4931724

 Al 
  0.5003440  0.4921650  0.0082471

 Al 
  0.5120378  0.7552250  0.2450460

 Al 
  0.7587236  0.4923123  0.2484431

 Al 
  0.7466128  0.7617841  0.0083486

 Al 
  0.5045023  0.0072014  0.4745037

 Al 
  0.4910846  0.2591431  0.7526348

 Al 
  0.7381739  0.9894770  0.7329699

 Al 
  0.7575058  0.2524875  0.5119734

 Al 
  0.5006930  0.5047943  0.5054465

 Al 
  0.4955064  0.7458047  0.7424917

 Al 
  0.7407641  0.4848460  0.7549131

 Al 
  0.7527412  0.7373311  0.4897691

