32 
charge = 0 
 Al 
  0.9885476  0.9985063  0.9812819

 Al 
  0.0064923  0.2483318  0.2537548

 Al 
  0.2333634  0.0018192  0.2347421

 Al 
  0.2615625  0.2547795  0.0043055

 Al 
  0.4896738  0.0140080  0.0070034

 Al 
  0.4891837  0.2551198  0.2527016

 Al 
  0.7504628  0.9983986  0.2379214

 Al 
  0.7588807  0.2370576  0.0100280

 Al 
  0.9977291  0.5080107  0.9978392

 Al 
  0.9994047  0.7649250  0.2662863

 Al 
  0.2454755  0.5055715  0.2624734

 Al 
  0.2409472  0.7574415  0.0017252

 Al 
  0.9996374  0.0169558  0.4961908

 Al 
  0.9924917  0.2491028  0.7555072

 Al 
  0.2737426  0.9914187  0.7519467

 Al 
  0.2639931  0.2539751  0.5124994

 Al 
  0.0108014  0.4745941  0.5191946

 Al 
  0.9969593  0.7347743  0.7335738

 Al 
  0.2499530  0.4941302  0.7433060

 Al 
  0.2606047  0.7554577  0.4958740

 Al 
  0.5001708  0.4932751  0.0087063

 Al 
  0.5125749  0.7583201  0.2456413

 Al 
  0.7586493  0.4909745  0.2477018

 Al 
  0.7399955  0.7608547  0.0081791

 Al 
  0.5067299  0.0098386  0.4807126

 Al 
  0.4925511  0.2618917  0.7518873

 Al 
  0.7344067  0.9891552  0.7296136

 Al 
  0.7569873  0.2500198  0.5130897

 Al 
  0.5009913  0.5105329  0.5014554

 Al 
  0.4950770  0.7435684  0.7442478

 Al 
  0.7386602  0.4844005  0.7564960

 Al 
  0.7533006  0.7327892  0.4941154

