32 
charge = 0 
 Al 
  0.9892035  0.9969271  0.9794713

 Al 
  0.0085268  0.2490335  0.2534454

 Al 
  0.2334068  0.0026100  0.2351282

 Al 
  0.2609599  0.2549824  0.0039788

 Al 
  0.4884771  0.0154596  0.0065356

 Al 
  0.4890253  0.2544268  0.2532993

 Al 
  0.7501943  0.9977736  0.2384078

 Al 
  0.7585577  0.2363163  0.0091703

 Al 
  0.9975843  0.5084798  0.9982649

 Al 
  0.0008836  0.7658705  0.2671105

 Al 
  0.2461834  0.5051223  0.2633904

 Al 
  0.2413321  0.7565442  0.0016175

 Al 
  0.9991684  0.0172170  0.4957663

 Al 
  0.9940424  0.2487822  0.7545889

 Al 
  0.2746411  0.9924410  0.7522784

 Al 
  0.2631565  0.2544738  0.5114079

 Al 
  0.0096716  0.4730546  0.5189174

 Al 
  0.9962044  0.7352049  0.7329773

 Al 
  0.2506411  0.4934818  0.7430622

 Al 
  0.2609747  0.7553611  0.4968207

 Al 
  0.5001213  0.4937726  0.0088572

 Al 
  0.5125415  0.7592904  0.2458925

 Al 
  0.7585689  0.4905265  0.2474704

 Al 
  0.7378026  0.7603658  0.0079043

 Al 
  0.5074241  0.0106406  0.4829872

 Al 
  0.4932058  0.2626801  0.7516336

 Al 
  0.7331803  0.9890674  0.7285877

 Al 
  0.7566667  0.2491919  0.5133001

 Al 
  0.5011138  0.5123818  0.4999864

 Al 
  0.4950040  0.7427937  0.7449483

 Al 
  0.7380328  0.4844067  0.7570813

 Al 
  0.7535011  0.7313202  0.4957131

