32 
charge = 0 
 Al 
  0.9909955  0.9929521  0.9751572

 Al 
  0.0133372  0.2509133  0.2525048

 Al 
  0.2338956  0.0045777  0.2363410

 Al 
  0.2589624  0.2556433  0.0031001

 Al 
  0.4859500  0.0187416  0.0053104

 Al 
  0.4889411  0.2528971  0.2548191

 Al 
  0.7496560  0.9965039  0.2399720

 Al 
  0.7575269  0.2348584  0.0068858

 Al 
  0.9972192  0.5094810  0.9994332

 Al 
  0.0044008  0.7677095  0.2688382

 Al 
  0.2479692  0.5040406  0.2653792

 Al 
  0.2424286  0.7541446  0.0013465

 Al 
  0.9981734  0.0175610  0.4950436

 Al 
  0.9980063  0.2477687  0.7525803

 Al 
  0.2762982  0.9951698  0.7527783

 Al 
  0.2610106  0.2553401  0.5085392

 Al 
  0.0066358  0.4697985  0.5177367

 Al 
  0.9944025  0.7365823  0.7316866

 Al 
  0.2523563  0.4921477  0.7428246

 Al 
  0.2617222  0.7553030  0.4991325

 Al 
  0.5000087  0.4951686  0.0092396

 Al 
  0.5119734  0.7614635  0.2466623

 Al 
  0.7582545  0.4894584  0.2469878

 Al 
  0.7327311  0.7588795  0.0067769

 Al 
  0.5088634  0.0123199  0.4886516

 Al 
  0.4950448  0.2642258  0.7509863

 Al 
  0.7304453  0.9889028  0.7264950

 Al 
  0.7555814  0.2472959  0.5134276

 Al 
  0.5014393  0.5164843  0.4962824

 Al 
  0.4949594  0.7409349  0.7468430

 Al 
  0.7367915  0.4847322  0.7585602

 Al 
  0.7540159  0.7280011  0.4996782

