32 
charge = 0 
 Al 
  0.9913618  0.9921786  0.9743552

 Al 
  0.0142171  0.2512970  0.2522920

 Al 
  0.2340590  0.0049552  0.2366170

 Al 
  0.2584959  0.2558005  0.0029157

 Al 
  0.4855403  0.0193196  0.0050666

 Al 
  0.4889807  0.2526311  0.2551161

 Al 
  0.7495755  0.9963084  0.2403297

 Al 
  0.7572954  0.2346344  0.0064192

 Al 
  0.9971487  0.5096468  0.9996745

 Al 
  0.0050530  0.7679744  0.2691216

 Al 
  0.2483157  0.5038451  0.2657158

 Al 
  0.2426650  0.7536558  0.0012920

 Al 
  0.9980100  0.0175783  0.4949582

 Al 
  0.9987872  0.2475348  0.7522412

 Al 
  0.2765222  0.9957267  0.7528192

 Al 
  0.2605923  0.2554416  0.5079650

 Al 
  0.0060146  0.4692726  0.5174286

 Al 
  0.9940733  0.7368930  0.7314687

 Al 
  0.2526830  0.4919398  0.7428345

 Al 
  0.2618360  0.7553228  0.4995743

 Al 
  0.4999851  0.4954606  0.0093188

 Al 
  0.5117791  0.7618497  0.2468405

 Al 
  0.7581753  0.4892592  0.2469110

 Al 
  0.7318153  0.7585516  0.0064873

 Al 
  0.5090837  0.0125922  0.4897381

 Al 
  0.4954309  0.2644560  0.7508552

 Al 
  0.7299762  0.9888793  0.7261769

 Al 
  0.7553228  0.2469618  0.5133867

 Al 
  0.5015049  0.5171873  0.4955621

 Al 
  0.4949693  0.7405883  0.7472340

 Al 
  0.7366108  0.4848436  0.7588486

 Al 
  0.7541186  0.7274145  0.5004344

