32 
charge = 0 
 Al 
  0.9906292  0.9937367  0.9759826

 Al 
  0.0124264  0.2505297  0.2527103

 Al 
  0.2337545  0.0041941  0.2360749

 Al 
  0.2594104  0.2554948  0.0032808

 Al 
  0.4863942  0.0181352  0.0055554

 Al 
  0.4889201  0.2531756  0.2545171

 Al 
  0.7497451  0.9967192  0.2396255

 Al 
  0.7577521  0.2351047  0.0073511

 Al 
  0.9972910  0.5093040  0.9991931

 Al 
  0.0037300  0.7674088  0.2685337

 Al 
  0.2476165  0.5042448  0.2650215

 Al 
  0.2421959  0.7546334  0.0014009

 Al 
  0.9983491  0.0175264  0.4951488

 Al 
  0.9972180  0.2479927  0.7529404

 Al 
  0.2760383  0.9946129  0.7527177

 Al 
  0.2614351  0.2552139  0.5091171

 Al 
  0.0072558  0.4703678  0.5180226

 Al 
  0.9947453  0.7362804  0.7319180

 Al 
  0.2520234  0.4923766  0.7428333

 Al 
  0.2615960  0.7552931  0.4986820

 Al 
  0.5000309  0.4948790  0.0091629

 Al 
  0.5121417  0.7610613  0.2464915

 Al 
  0.7583288  0.4896639  0.2470707

 Al 
  0.7336827  0.7591988  0.0070479

 Al 
  0.5086184  0.0120266  0.4875439

 Al 
  0.4946636  0.2639684  0.7511175

 Al 
  0.7309440  0.9889288  0.7268489

 Al 
  0.7558264  0.2476474  0.5134474

 Al 
  0.5013737  0.5157381  0.4970138

 Al 
  0.4949557  0.7412913  0.7464531

 Al 
  0.7369969  0.4846344  0.7582682

 Al 
  0.7539119  0.7286149  0.4989048

