32 
charge = 0 
 Al 
  0.9924496  0.9899300  0.9720992

 Al 
  0.0166465  0.2524454  0.2516088

 Al 
  0.2346765  0.0060356  0.2374957

 Al 
  0.2569935  0.2563190  0.0023538

 Al 
  0.4845131  0.0208826  0.0043537

 Al 
  0.4892109  0.2519170  0.2559861

 Al 
  0.7493936  0.9958455  0.2414695

 Al 
  0.7565739  0.2340837  0.0050171

 Al 
  0.9969395  0.5100688  0.0003923

 Al 
  0.0068821  0.7685572  0.2698480

 Al 
  0.2493218  0.5033204  0.2665994

 Al 
  0.2434075  0.7521942  0.0011336

 Al 
  0.9975929  0.0175424  0.4948134

 Al 
  0.0010717  0.2467799  0.7513650

 Al 
  0.2769813  0.9973986  0.7528216

 Al 
  0.2593931  0.2556086  0.5062757

 Al 
  0.0041557  0.4679706  0.5163903

 Al 
  0.9931724  0.7378632  0.7309044

 Al 
  0.2536038  0.4914398  0.7429570

 Al 
  0.2621021  0.7554416  0.5008502

 Al 
  0.4999084  0.4963393  0.0095614

 Al 
  0.5110477  0.7629103  0.2474246

 Al 
  0.7579117  0.4886924  0.2467229

 Al 
  0.7292882  0.7575318  0.0055072

 Al 
  0.5095874  0.0132766  0.4928444

 Al 
  0.4965930  0.2649856  0.7504554

 Al 
  0.7287473  0.9888260  0.7254492

 Al 
  0.7544812  0.2460646  0.5131392

 Al 
  0.5016955  0.5190387  0.4934743

 Al 
  0.4950213  0.7396144  0.7484172

 Al 
  0.7362086  0.4852569  0.7596815

 Al 
  0.7544268  0.7258205  0.5025902

