32 
charge = 0 
 Al 
  0.9955200  0.9837855  0.9665549

 Al 
  0.0220620  0.2558289  0.2491250

 Al 
  0.2377358  0.0088102  0.2405698

 Al 
  0.2517561  0.2583201  0.0005185

 Al 
  0.4830800  0.0241733  0.0024207

 Al 
  0.4908965  0.2503490  0.2583820

 Al 
  0.7493589  0.9954916  0.2453802

 Al 
  0.7543067  0.2332706  0.0007611

 Al 
  0.9963381  0.5107693  0.0024293

 Al 
  0.0113707  0.7684545  0.2710435

 Al 
  0.2520754  0.5024244  0.2682144

 Al 
  0.2459804  0.7478689  0.0006411

 Al 
  0.9969432  0.0167306  0.4952218

 Al 
  0.0074637  0.2440906  0.7498800

 Al 
  0.2766113  0.0024021  0.7518291

 Al 
  0.2563722  0.2549453  0.5015903

 Al 
  0.9986585  0.4664373  0.5123843

 Al 
  0.9913433  0.7409349  0.7299490

 Al 
  0.2557720  0.4910017  0.7439335

 Al 
  0.2622469  0.7562967  0.5043958

 Al 
  0.4995037  0.4989184  0.0104487

 Al 
  0.5075689  0.7654596  0.2495990

 Al 
  0.7568932  0.4872308  0.2465212

 Al 
  0.7234580  0.7542572  0.0017623

 Al 
  0.5095292  0.0142555  0.5007091

 Al 
  0.5000260  0.2652827  0.7491362

 Al 
  0.7267165  0.9887963  0.7253861

 Al 
  0.7513762  0.2442973  0.5113707

 Al 
  0.5021905  0.5223640  0.4879288

 Al 
  0.4952428  0.7372407  0.7520123

 Al 
  0.7362965  0.4871095  0.7619239

 Al 
  0.7553091  0.7224024  0.5079773

