32 
charge = 0 
 Al 
  0.9951896  0.9844389  0.9670945

 Al 
  0.0215880  0.2554552  0.2494406

 Al 
  0.2372977  0.0085305  0.2401911

 Al 
  0.2523922  0.2580602  0.0007388

 Al 
  0.4831308  0.0238973  0.0026224

 Al 
  0.4906317  0.2504913  0.2581258

 Al 
  0.7493268  0.9954594  0.2449050

 Al 
  0.7545641  0.2333139  0.0012487

 Al 
  0.9964049  0.5107272  0.0022140

 Al 
  0.0109302  0.7685993  0.2709754

 Al 
  0.2517796  0.5024702  0.2681043

 Al 
  0.2456599  0.7483540  0.0006992

 Al 
  0.9969754  0.0168692  0.4951215

 Al 
  0.0067732  0.2444223  0.7499703

 Al 
  0.2767747  0.0018378  0.7520098

 Al 
  0.2566680  0.2550988  0.5020878

 Al 
  0.9992711  0.4664410  0.5128929

 Al 
  0.9914781  0.7405859  0.7300035

 Al 
  0.2555752  0.4909757  0.7437899

 Al 
  0.2622779  0.7561655  0.5040072

 Al 
  0.4995693  0.4986374  0.0103312

 Al 
  0.5080541  0.7652059  0.2493231

 Al 
  0.7570256  0.4873793  0.2465187

 Al 
  0.7239976  0.7546371  0.0022350

 Al 
  0.5096604  0.0142208  0.4999319

 Al 
  0.4996485  0.2653359  0.7492958

 Al 
  0.7268205  0.9887926  0.7252302

 Al 
  0.7517685  0.2444310  0.5116442

 Al 
  0.5021410  0.5221474  0.4885006

 Al 
  0.4952218  0.7374672  0.7516064

 Al 
  0.7361888  0.4868596  0.7616888

 Al 
  0.7552151  0.7226944  0.5074514

