32 
charge = 0 
 Al 
  0.9945238  0.9857594  0.9682231

 Al 
  0.0205510  0.2547065  0.2500371

 Al 
  0.2365007  0.0079526  0.2394659

 Al 
  0.2536199  0.2575714  0.0011645

 Al 
  0.4833078  0.0232847  0.0030345

 Al 
  0.4901639  0.2507970  0.2576098

 Al 
  0.7492884  0.9954482  0.2439904

 Al 
  0.7550740  0.2334290  0.0022066

 Al 
  0.9965373  0.5106183  0.0017734

 Al 
  0.0100119  0.7687887  0.2707923

 Al 
  0.2511856  0.5026026  0.2678345

 Al 
  0.2450498  0.7493144  0.0008131

 Al 
  0.9970682  0.0171105  0.4949606

 Al 
  0.0053846  0.2450584  0.7502030

 Al 
  0.2770110  0.0007203  0.7523192

 Al 
  0.2572868  0.2553487  0.5030964

 Al 
  0.0004901  0.4665697  0.5138619

 Al 
  0.9918011  0.7398928  0.7301507

 Al 
  0.2551483  0.4909782  0.7435263

 Al 
  0.2623051  0.7559316  0.5032325

 Al 
  0.4996819  0.4980731  0.0101146

 Al 
  0.5089451  0.7646824  0.2487996

 Al 
  0.7572744  0.4876850  0.2465323

 Al 
  0.7251497  0.7553834  0.0031372

 Al 
  0.5098262  0.0140958  0.4983132

 Al 
  0.4988911  0.2653829  0.7496052

 Al 
  0.7271199  0.9887889  0.7250446

 Al 
  0.7525147  0.2447428  0.5121306

 Al 
  0.5020395  0.5216041  0.4896713

 Al 
  0.4951735  0.7379474  0.7508007

 Al 
  0.7360502  0.4863930  0.7612098

 Al 
  0.7550245  0.7233392  0.5063487

