32 
charge = 0 
 Al 
  0.9935040  0.9877964  0.9700621

 Al 
  0.0187540  0.2535827  0.2508601

 Al 
  0.2354871  0.0070318  0.2384449

 Al 
  0.2553648  0.2569081  0.0017722

 Al 
  0.4837768  0.0221969  0.0036768

 Al 
  0.4896057  0.2513118  0.2568153

 Al 
  0.7492995  0.9955621  0.2426897

 Al 
  0.7558302  0.2336926  0.0036162

 Al 
  0.9967365  0.5103893  0.0010940

 Al 
  0.0085268  0.7688246  0.2703987

 Al 
  0.2502747  0.5029033  0.2672999

 Al 
  0.2441983  0.7507487  0.0009752

 Al 
  0.9972823  0.0173828  0.4948196

 Al 
  0.0032647  0.2459532  0.7506918

 Al 
  0.2771385  0.9990607  0.7526521

 Al 
  0.2582904  0.2555727  0.5046532

 Al 
  0.0023155  0.4670759  0.5151960

 Al 
  0.9924125  0.7388681  0.7304676

 Al 
  0.2544255  0.4911217  0.7431946

 Al 
  0.2622568  0.7556470  0.5020618

 Al 
  0.4998119  0.4972130  0.0098238

 Al 
  0.5101022  0.7638446  0.2480768

 Al 
  0.7576110  0.4881689  0.2465992

 Al 
  0.7270791  0.7564737  0.0043859

 Al 
  0.5098399  0.0137716  0.4957007

 Al 
  0.4977489  0.2652888  0.7500421

 Al 
  0.7277957  0.9887963  0.7250681

 Al 
  0.7535456  0.2453282  0.5127184

 Al 
  0.5018737  0.5205039  0.4915128

 Al 
  0.4950943  0.7387357  0.7496065

 Al 
  0.7360230  0.4857755  0.7604673

 Al 
  0.7547300  0.7244703  0.5045592

