32 
charge = 0 
 Al 
  0.9941872  0.9864289  0.9688159

 Al 
  0.0199842  0.2543327  0.2503205

 Al 
  0.2361393  0.0076531  0.2391169

 Al 
  0.2542139  0.2573412  0.0013700

 Al 
  0.4834365  0.0229456  0.0032449

 Al 
  0.4899597  0.2509603  0.2573486

 Al 
  0.7492835  0.9954680  0.2435473

 Al 
  0.7553277  0.2335045  0.0026781

 Al 
  0.9966041  0.5105515  0.0015494

 Al 
  0.0095329  0.7688332  0.2706772

 Al 
  0.2508861  0.5026892  0.2676736

 Al 
  0.2447589  0.7497921  0.0008675

 Al 
  0.9971301  0.0172133  0.4949000

 Al 
  0.0046842  0.2453641  0.7503465

 Al 
  0.2770841  0.0001658  0.7524479

 Al 
  0.2576098  0.2554440  0.5036087

 Al 
  0.0010977  0.4666972  0.5143223

 Al 
  0.9919880  0.7395500  0.7302436

 Al 
  0.2549181  0.4910079  0.7434063

 Al 
  0.2623001  0.7558277  0.5028452

 Al 
  0.4997302  0.4977872  0.0100131

 Al 
  0.5093547  0.7644114  0.2485496

 Al 
  0.7573907  0.4878422  0.2465484

 Al 
  0.7257648  0.7557510  0.0035667

 Al 
  0.5098609  0.0140055  0.4974679

 Al 
  0.4985112  0.2653730  0.7497537

 Al 
  0.7273155  0.9887889  0.7250124

 Al 
  0.7528699  0.2449223  0.5123447

 Al 
  0.5019863  0.5212762  0.4902728

 Al 
  0.4951475  0.7382011  0.7504010

 Al 
  0.7360168  0.4861764  0.7609660

 Al 
  0.7549267  0.7236931  0.5057720

