32 
charge = 0 
 Al 
  0.9985310  0.9778947  0.9624115

 Al 
  0.0250458  0.2592669  0.2456302

 Al 
  0.2430783  0.0111480  0.2445721

 Al 
  0.2452799  0.2611900  0.9982154

 Al 
  0.4837087  0.0258193  0.0006151

 Al 
  0.4943233  0.2492810  0.2606579

 Al 
  0.7500606  0.9964977  0.2503106

 Al 
  0.7518959  0.2332743  0.9958740

 Al 
  0.9956995  0.5108534  0.0042448

 Al 
  0.0150017  0.7655661  0.2709853

 Al 
  0.2548215  0.5027164  0.2684582

 Al 
  0.2494592  0.7432404  0.9999950

 Al 
  0.9970645  0.0148755  0.4966821

 Al 
  0.0138112  0.2407443  0.7497352

 Al 
  0.2736770  0.0078449  0.7494122

 Al 
  0.2540246  0.2527028  0.4971821

 Al 
  0.9928642  0.4682639  0.5069737

 Al 
  0.9910165  0.7441463  0.7300319

 Al 
  0.2570615  0.4920771  0.7455361

 Al 
  0.2613992  0.7579031  0.5082211

 Al 
  0.4985001  0.5013093  0.0118373

 Al 
  0.5019133  0.7677417  0.2525692

 Al 
  0.7553549  0.4860056  0.2468145

 Al 
  0.7195139  0.7505878  0.9968603

 Al 
  0.5067138  0.0136986  0.5069031

 Al 
  0.5035085  0.2639127  0.7474618

 Al 
  0.7271991  0.9889065  0.7288996

 Al 
  0.7471152  0.2437392  0.5079055

 Al 
  0.5025840  0.5226672  0.4831394

 Al 
  0.4952515  0.7355812  0.7558153

 Al 
  0.7385018  0.4899151  0.7640154

 Al 
  0.7560232  0.7206314  0.5120353

