32 
charge = 0 
 Al 
  0.9988775  0.9772276  0.9620390

 Al 
  0.0252327  0.2596555  0.2451562

 Al 
  0.2438419  0.0113905  0.2450906

 Al 
  0.2444730  0.2615724  0.9979184

 Al 
  0.4838968  0.0259108  0.0004084

 Al 
  0.4948357  0.2491844  0.2609079

 Al 
  0.7501869  0.9966858  0.2509393

 Al 
  0.7516175  0.2333127  0.9952577

 Al 
  0.9956227  0.5108336  0.0044268

 Al 
  0.0153767  0.7650574  0.2708987

 Al 
  0.2551445  0.5028340  0.2683951

 Al 
  0.2499208  0.7426897  0.9999072

 Al 
  0.9971251  0.0145933  0.4969036

 Al 
  0.0145389  0.2403408  0.7497822

 Al 
  0.2731771  0.0084971  0.7490582

 Al 
  0.2537894  0.2523637  0.4966957

 Al 
  0.9921798  0.4686785  0.5062769

 Al 
  0.9910957  0.7445027  0.7301074

 Al 
  0.2571444  0.4922925  0.7457428

 Al 
  0.2612346  0.7581308  0.5087013

 Al 
  0.4983318  0.5015457  0.0120353

 Al 
  0.5011311  0.7680102  0.2529590

 Al 
  0.7551371  0.4858844  0.2468776

 Al 
  0.7191785  0.7501572  0.9962502

 Al 
  0.5062051  0.0135216  0.5075132

 Al 
  0.5039070  0.2636676  0.7472501

 Al 
  0.7274207  0.9889275  0.7295480

 Al 
  0.7465546  0.2437515  0.5073969

 Al 
  0.5026249  0.5225113  0.4826494

 Al 
  0.4952205  0.7354463  0.7562497

 Al 
  0.7389003  0.4902876  0.7642468

 Al 
  0.7560789  0.7205336  0.5124066

