32 
charge = 0 
 Al 
  0.9992278  0.9765581  0.9616900

 Al 
  0.0253874  0.2600428  0.2446661

 Al 
  0.2446389  0.0116281  0.2456227

 Al 
  0.2436538  0.2619660  0.9976127

 Al 
  0.4841060  0.0259826  0.0001992

 Al 
  0.4953752  0.2490929  0.2611542

 Al 
  0.7503230  0.9968851  0.2515841

 Al 
  0.7513403  0.2333585  0.9946265

 Al 
  0.9955448  0.5108101  0.0046037

 Al 
  0.0157467  0.7645092  0.2707960

 Al 
  0.2554700  0.5029714  0.2683134

 Al 
  0.2503960  0.7421328  0.9998156

 Al 
  0.9971944  0.0142951  0.4971350

 Al 
  0.0152690  0.2399349  0.7498391

 Al 
  0.2726412  0.0091567  0.7486907

 Al 
  0.2535592  0.2520123  0.4962118

 Al 
  0.9914905  0.4691364  0.5055641

 Al 
  0.9912009  0.7448567  0.7301978

 Al 
  0.2572150  0.4925264  0.7459519

 Al 
  0.2610564  0.7583684  0.5091963

 Al 
  0.4981511  0.5017734  0.0122432

 Al 
  0.5003205  0.7682837  0.2533587

 Al 
  0.7549082  0.4857693  0.2469469

 Al 
  0.7188654  0.7497228  0.9956326

 Al 
  0.5056569  0.0133199  0.5081060

 Al 
  0.5043067  0.2634090  0.7470360

 Al 
  0.7276768  0.9889498  0.7302497

 Al 
  0.7459754  0.2437788  0.5068648

 Al 
  0.5026645  0.5223157  0.4821704

 Al 
  0.4951809  0.7353237  0.7566816

 Al 
  0.7393297  0.4906713  0.7644770

 Al 
  0.7561284  0.7204594  0.5127605

