32 
charge = 0 
 Al 
  0.9961784  0.9824848  0.9655240

 Al 
  0.0229221  0.2565814  0.2484568

 Al 
  0.2386973  0.0093547  0.2413618

 Al 
  0.2504381  0.2588721  0.0000594

 Al 
  0.4830541  0.0246671  0.0020197

 Al 
  0.4914880  0.2500804  0.2588894

 Al 
  0.7494493  0.9956042  0.2463678

 Al 
  0.7537857  0.2332137  0.9997612

 Al 
  0.9962019  0.5108336  0.0028551

 Al 
  0.0122246  0.7680635  0.2711363

 Al 
  0.2526669  0.5023774  0.2683865

 Al 
  0.2466549  0.7468875  0.0005173

 Al 
  0.9969061  0.0164163  0.4954606

 Al 
  0.0088473  0.2434038  0.7497475

 Al 
  0.2761905  0.0035493  0.7514158

 Al 
  0.2558054  0.2545790  0.5006027

 Al 
  0.9974209  0.4665512  0.5113138

 Al 
  0.9911267  0.7416378  0.7298772

 Al 
  0.2561358  0.4911094  0.7442429

 Al 
  0.2621492  0.7565851  0.5051879

 Al 
  0.4993490  0.4994728  0.0107012

 Al 
  0.5065195  0.7659608  0.2501807

 Al 
  0.7566098  0.4869412  0.2465435

 Al 
  0.7224420  0.7534813  0.0007747

 Al 
  0.5091642  0.0142728  0.5022029

 Al 
  0.5007859  0.2651131  0.7487996

 Al 
  0.7265989  0.9888100  0.7258304

 Al 
  0.7505470  0.2440733  0.5107631

 Al 
  0.5022845  0.5226882  0.4868125

 Al 
  0.4952787  0.7368113  0.7528340

 Al 
  0.7365861  0.4876454  0.7623905

 Al 
  0.7554898  0.7218764  0.5089835

