32 
charge = 0 
 Al 
  0.9975088  0.9798797  0.9636454

 Al 
  0.0243070  0.2581060  0.2469432

 Al 
  0.2409967  0.0103992  0.2431068

 Al 
  0.2475979  0.2601195  0.9990557

 Al 
  0.4832867  0.0254344  0.0012239

 Al 
  0.4929521  0.2495978  0.2599017

 Al 
  0.7497413  0.9960225  0.2485211

 Al 
  0.7527189  0.2332026  0.9976264

 Al 
  0.9959210  0.5108806  0.0036706

 Al 
  0.0138446  0.7668606  0.2711438

 Al 
  0.2538760  0.5024702  0.2685325

 Al 
  0.2481672  0.7448493  0.0002388

 Al 
  0.9969407  0.0156242  0.4960856

 Al 
  0.0116529  0.2419286  0.7496621

 Al 
  0.2749616  0.0059453  0.7503750

 Al 
  0.2547560  0.2536162  0.4986461

 Al 
  0.9948666  0.4672764  0.5089501

 Al 
  0.9909299  0.7430659  0.7298859

 Al 
  0.2567336  0.4915474  0.7449446

 Al 
  0.2618026  0.7572769  0.5068561

 Al 
  0.4989307  0.5005507  0.0112977

 Al 
  0.5040728  0.7669620  0.2514739

 Al 
  0.7559477  0.4863893  0.2466611

 Al 
  0.7206512  0.7518601  0.9986214

 Al 
  0.5079984  0.0140760  0.5049824

 Al 
  0.5023254  0.2645389  0.7480669

 Al 
  0.7267425  0.9888557  0.7272784

 Al 
  0.7486944  0.2437949  0.5092768

 Al 
  0.5024590  0.5229023  0.4846691

 Al 
  0.4952985  0.7360527  0.7545196

 Al 
  0.7374994  0.4888669  0.7633186

 Al 
  0.7558190  0.7210485  0.5108175

