32 
charge = 0 
 Al 
  0.0002834  0.9745520  0.9608076

 Al 
  0.0256522  0.2611863  0.2431068

 Al 
  0.2472105  0.0123100  0.2472935

 Al 
  0.2411403  0.2631998  0.9966573

 Al 
  0.4848634  0.0260767  0.9995545

 Al 
  0.4971499  0.2488515  0.2618670

 Al 
  0.7507908  0.9975521  0.2535926

 Al 
  0.7505124  0.2335367  0.9926514

 Al 
  0.9953035  0.5107161  0.0050950

 Al 
  0.0168135  0.7626479  0.2703839

 Al 
  0.2564626  0.5034912  0.2679484

 Al 
  0.2518972  0.7404473  0.9995223

 Al 
  0.9974568  0.0133063  0.4978838

 Al 
  0.0174459  0.2387295  0.7500532

 Al 
  0.2708319  0.0111579  0.7475137

 Al 
  0.2528885  0.2508861  0.4947874

 Al 
  0.9893990  0.4707514  0.5033414

 Al 
  0.9916873  0.7458802  0.7305443

 Al 
  0.2573363  0.4933407  0.7465868

 Al 
  0.2604302  0.7591307  0.5107532

 Al 
  0.4975323  0.5023749  0.0129189

 Al 
  0.4977340  0.7691290  0.2546112

 Al 
  0.7541669  0.4854599  0.2471883

 Al 
  0.7180833  0.7484308  0.9937602

 Al 
  0.5037907  0.0125464  0.5097792

 Al 
  0.5055047  0.2625476  0.7463777

 Al 
  0.7286459  0.9890241  0.7326655

 Al 
  0.7441599  0.2439582  0.5051309

 Al 
  0.5027858  0.5214927  0.4808314

 Al 
  0.4950040  0.7350391  0.7579489

 Al 
  0.7408099  0.4918705  0.7651490

 Al 
  0.7562287  0.7203789  0.5136936

