32 
charge = 0 
 Al 
  0.0038204  0.9682293  0.9605564

 Al 
  0.0239493  0.2644052  0.2373286

 Al 
  0.2572447  0.0140612  0.2533649

 Al 
  0.2330491  0.2675660  0.9932293

 Al 
  0.4886342  0.0248255  0.9971202

 Al 
  0.5045604  0.2485050  0.2634944

 Al 
  0.7530791  0.0001547  0.2608064

 Al 
  0.7480880  0.2346406  0.9853844

 Al 
  0.9943060  0.5104190  0.0060418

 Al 
  0.0196822  0.7541545  0.2677578

 Al 
  0.2597223  0.5064428  0.2653185

 Al 
  0.2573647  0.7351245  0.9983800

 Al 
  0.9988404  0.0088906  0.5006670

 Al 
  0.0237179  0.2355675  0.7507896

 Al 
  0.2627927  0.0175363  0.7433134

 Al 
  0.2507735  0.2470051  0.4905834

 Al 
  0.9826160  0.4786285  0.4954322

 Al 
  0.9953987  0.7482748  0.7325479

 Al 
  0.2565690  0.4972105  0.7483899

 Al 
  0.2572670  0.7619351  0.5166663

 Al 
  0.4947032  0.5029367  0.0156465

 Al 
  0.4878669  0.7720893  0.2591580

 Al 
  0.7511621  0.4851245  0.2481783

 Al 
  0.7178048  0.7446587  0.9880761

 Al 
  0.4955968  0.0077818  0.5141330

 Al 
  0.5092483  0.2591852  0.7442020

 Al 
  0.7340206  0.9894089  0.7439372

 Al 
  0.7377036  0.2456760  0.4982167

 Al 
  0.5031632  0.5160883  0.4781657

 Al 
  0.4936711  0.7353151  0.7612507

 Al 
  0.7478145  0.4960448  0.7668284

 Al 
  0.7557658  0.7221152  0.5150389

