32 
charge = 0 
 Al 
  0.0040877  0.9678036  0.9608064

 Al 
  0.0236053  0.2645711  0.2368868

 Al 
  0.2580640  0.0141491  0.2538340

 Al 
  0.2325368  0.2678840  0.9929719

 Al 
  0.4889882  0.0246003  0.9969110

 Al 
  0.5052015  0.2485124  0.2635216

 Al 
  0.7533117  0.0003490  0.2613670

 Al 
  0.7479506  0.2347730  0.9848064

 Al 
  0.9942057  0.5104228  0.0060443

 Al 
  0.0198344  0.7533649  0.2674620

 Al 
  0.2599512  0.5067472  0.2650178

 Al 
  0.2577806  0.7347829  0.9982872

 Al 
  0.9989703  0.0084699  0.5008737

 Al 
  0.0240397  0.2354500  0.7508019

 Al 
  0.2620662  0.0179546  0.7430201

 Al 
  0.2506126  0.2467601  0.4903198

 Al 
  0.9821543  0.4793884  0.4948295

 Al 
  0.9958418  0.7483355  0.7327546

 Al 
  0.2564130  0.4975781  0.7484691

 Al 
  0.2569403  0.7621380  0.5171477

 Al 
  0.4944458  0.5028328  0.0158755

 Al 
  0.4870687  0.7723071  0.2595131

 Al 
  0.7509047  0.4851765  0.2482451

 Al 
  0.7179991  0.7444384  0.9877518

 Al 
  0.4948852  0.0072447  0.5143780

 Al 
  0.5094958  0.2589278  0.7440473

 Al 
  0.7345725  0.9894535  0.7449879

 Al 
  0.7372321  0.2458863  0.4976548

 Al 
  0.5031818  0.5154893  0.4781545

 Al 
  0.4935152  0.7354426  0.7613881

 Al 
  0.7484914  0.4963442  0.7668804

 Al 
  0.7556519  0.7224271  0.5149931

