32 
charge = 0 
 Al 
  0.0035431  0.9686847  0.9603534

 Al 
  0.0242661  0.2642146  0.2377914

 Al 
  0.2563982  0.0139622  0.2528761

 Al 
  0.2336097  0.2672306  0.9934991

 Al 
  0.4882753  0.0250334  0.9973331

 Al 
  0.5039045  0.2485038  0.2634449

 Al 
  0.7528489  0.9999480  0.2602235

 Al 
  0.7482427  0.2345131  0.9859834

 Al 
  0.9944050  0.5104228  0.0060257

 Al 
  0.0195102  0.7549515  0.2680486

 Al 
  0.2594785  0.5061395  0.2656143

 Al 
  0.2569291  0.7354945  0.9984753

 Al 
  0.9987092  0.0093114  0.5004480

 Al 
  0.0233466  0.2357185  0.7507623

 Al 
  0.2635315  0.0170846  0.7436278

 Al 
  0.2509393  0.2472761  0.4908680

 Al 
  0.9831110  0.4778662  0.4960621

 Al 
  0.9949681  0.7481857  0.7323412

 Al 
  0.2567113  0.4968405  0.7482922

 Al 
  0.2575900  0.7617197  0.5161675

 Al 
  0.4949656  0.5030147  0.0154101

 Al 
  0.4886924  0.7718591  0.2587892

 Al 
  0.7514244  0.4850886  0.2481053

 Al 
  0.7176464  0.7449012  0.9884399

 Al 
  0.4963269  0.0083065  0.5138644

 Al 
  0.5089835  0.2594562  0.7443666

 Al 
  0.7334711  0.9893656  0.7428741

 Al 
  0.7382036  0.2454718  0.4987996

 Al 
  0.5031409  0.5166786  0.4782177

 Al 
  0.4938233  0.7352025  0.7610836

 Al 
  0.7471375  0.4957279  0.7667554

 Al 
  0.7558673  0.7218269  0.5150587

