32 
charge = 0 
 Al 
  0.0048352  0.9666984  0.9618398

 Al 
  0.0224172  0.2649188  0.2356950

 Al 
  0.2603473  0.0143483  0.2551099

 Al 
  0.2312905  0.2687231  0.9922863

 Al 
  0.4900141  0.0238355  0.9963071

 Al 
  0.5070182  0.2485533  0.2634523

 Al 
  0.7540196  0.0008601  0.2629202

 Al 
  0.7476338  0.2352062  0.9832001

 Al 
  0.9938951  0.5104834  0.0059626

 Al 
  0.0201834  0.7510544  0.2665338

 Al 
  0.2605539  0.5076543  0.2640884

 Al 
  0.2589030  0.7339389  0.9980310

 Al 
  0.9993391  0.0072125  0.5014220

 Al 
  0.0246943  0.2352978  0.7507524

 Al 
  0.2599649  0.0190151  0.7422813

 Al 
  0.2501572  0.2461846  0.4896515

 Al 
  0.9809613  0.4816383  0.4931810

 Al 
  0.9972316  0.7483404  0.7333820

 Al 
  0.2558759  0.4986597  0.7486040

 Al 
  0.2559391  0.7626516  0.5184954

 Al 
  0.4937058  0.5023637  0.0165128

 Al 
  0.4848448  0.7728788  0.2604982

 Al 
  0.7501695  0.4854265  0.2483899

 Al 
  0.7187837  0.7439025  0.9870143

 Al 
  0.4928840  0.0055740  0.5149881

 Al 
  0.5101245  0.2582372  0.7436253

 Al 
  0.7362408  0.9896032  0.7480533

 Al 
  0.7359883  0.2465385  0.4961141

 Al 
  0.5032078  0.5136441  0.4783674

 Al 
  0.4930375  0.7359128  0.7616170

 Al 
  0.7505012  0.4971301  0.7669162

 Al 
  0.7552361  0.7235137  0.5147084

