32 
charge = 0 
 Al 
  0.0052968  0.9661019  0.9627667

 Al 
  0.0215014  0.2650252  0.2350119

 Al 
  0.2617185  0.0144362  0.2558524

 Al 
  0.2307027  0.2691859  0.9918989

 Al 
  0.4906638  0.0232513  0.9959259

 Al 
  0.5081370  0.2485917  0.2632766

 Al 
  0.7544998  0.0011336  0.2638520

 Al 
  0.7475026  0.2355304  0.9822360

 Al 
  0.9936785  0.5105663  0.0058363

 Al 
  0.0203282  0.7495656  0.2658854

 Al 
  0.2608856  0.5082484  0.2634548

 Al 
  0.2595466  0.7335231  0.9978776

 Al 
  0.9995644  0.0063759  0.5017264

 Al 
  0.0248651  0.2353683  0.7506386

 Al 
  0.2586369  0.0195609  0.7419076

 Al 
  0.2498713  0.2459445  0.4893000

 Al 
  0.9803289  0.4831097  0.4922120

 Al 
  0.9982031  0.7481993  0.7338015

 Al 
  0.2554626  0.4993602  0.7486028

 Al 
  0.2552510  0.7629103  0.5193072

 Al 
  0.4932491  0.5019244  0.0168927

 Al 
  0.4835082  0.7731882  0.2610935

 Al 
  0.7497079  0.4856789  0.2484357

 Al 
  0.7194706  0.7436426  0.9867234

 Al 
  0.4916724  0.0044156  0.5153037

 Al 
  0.5104525  0.2578486  0.7433753

 Al 
  0.7373595  0.9897159  0.7500124

 Al 
  0.7353052  0.2469890  0.4952181

 Al 
  0.5031966  0.5123831  0.4787139

 Al 
  0.4927169  0.7362940  0.7616232

 Al 
  0.7518254  0.4975645  0.7668333

 Al 
  0.7548933  0.7243639  0.5144052

