32 
charge = 0 
 Al 
  0.0043451  0.9674063  0.9611034

 Al 
  0.0232352  0.2647121  0.2364673

 Al 
  0.2588548  0.0142258  0.2542807

 Al 
  0.2320727  0.2681835  0.9927293

 Al 
  0.4893372  0.0243602  0.9967056

 Al 
  0.5058252  0.2485224  0.2635241

 Al 
  0.7535469  0.0005322  0.2619066

 Al 
  0.7478293  0.2349104  0.9842483

 Al 
  0.9941043  0.5104339  0.0060306

 Al 
  0.0199693  0.7525840  0.2671588

 Al 
  0.2601653  0.5070504  0.2647121

 Al 
  0.2581753  0.7344723  0.9981981

 Al 
  0.9990966  0.0080491  0.5010693

 Al 
  0.0243107  0.2353646  0.7508007

 Al 
  0.2613522  0.0183407  0.7427504

 Al 
  0.2504567  0.2465398  0.4900772

 Al 
  0.9817237  0.4801433  0.4942528

 Al 
  0.9962960  0.7483664  0.7329637

 Al 
  0.2562447  0.4979419  0.7485323

 Al 
  0.2566111  0.7623249  0.5176142

 Al 
  0.4941921  0.5027016  0.0160957

 Al 
  0.4862977  0.7725113  0.2598547

 Al 
  0.7506534  0.4852433  0.2483021

 Al 
  0.7182268  0.7442391  0.9874660

 Al 
  0.4941958  0.0066977  0.5146008

 Al 
  0.5097235  0.2586840  0.7438988

 Al 
  0.7351270  0.9895018  0.7460262

 Al 
  0.7367878  0.2461004  0.4971165

 Al 
  0.5031954  0.5148805  0.4781842

 Al 
  0.4933568  0.7355849  0.7614945

 Al 
  0.7491646  0.4966239  0.7669125

 Al 
  0.7555257  0.7227650  0.5149225

