32 
charge = 0 
 Al 
  0.0065826  0.9649275  0.9667863

 Al 
  0.0181538  0.2647431  0.2334662

 Al 
  0.2651218  0.0145451  0.2575714

 Al 
  0.2300864  0.2701228  0.9910648

 Al 
  0.4924434  0.0211277  0.9948616

 Al 
  0.5110428  0.2487129  0.2620563

 Al 
  0.7560047  0.0016125  0.2662195

 Al 
  0.7474853  0.2367309  0.9798290

 Al 
  0.9929867  0.5110403  0.0051148

 Al 
  0.0203653  0.7453220  0.2637407

 Al 
  0.2615675  0.5099426  0.2614945

 Al 
  0.2609945  0.7329749  0.9974952

 Al 
  0.0001238  0.0038191  0.5023489

 Al 
  0.0240557  0.2364277  0.7498614

 Al 
  0.2549589  0.0204779  0.7413915

 Al 
  0.2490545  0.2459507  0.4886231

 Al 
  0.9791830  0.4874449  0.4898582

 Al 
  0.0013279  0.7470967  0.7351109

 Al 
  0.2539602  0.5013712  0.7481585

 Al 
  0.2530333  0.7632382  0.5213282

 Al 
  0.4920734  0.5000074  0.0177702

 Al 
  0.4801681  0.7737191  0.2626368

 Al 
  0.7484295  0.4869103  0.2482934

 Al 
  0.7223046  0.7432441  0.9868051

 Al 
  0.4886553  0.0007104  0.5159410

 Al 
  0.5110056  0.2570021  0.7427367

 Al 
  0.7408037  0.9901230  0.7554948

 Al 
  0.7339686  0.2483961  0.4931909

 Al 
  0.5029825  0.5084290  0.4807559

 Al 
  0.4918049  0.7377494  0.7609784

 Al 
  0.7557596  0.4984778  0.7660264

 Al 
  0.7535134  0.7276038  0.5129870

