32 
charge = 0 
 Al 
  0.0063722  0.9650624  0.9659769

 Al 
  0.0187775  0.2648532  0.2336741

 Al 
  0.2646268  0.0145389  0.2573363

 Al 
  0.2300715  0.2700139  0.9911712

 Al 
  0.4921625  0.0215237  0.9950312

 Al 
  0.5106047  0.2486956  0.2623373

 Al 
  0.7557448  0.0015705  0.2658656

 Al 
  0.7474494  0.2365019  0.9801817

 Al 
  0.9931055  0.5109376  0.0052720

 Al 
  0.0204000  0.7460101  0.2641231

 Al 
  0.2614871  0.5096703  0.2618274

 Al 
  0.2608014  0.7329934  0.9975521

 Al 
  0.0000433  0.0042560  0.5022746

 Al 
  0.0243330  0.2361591  0.7500396

 Al 
  0.2555443  0.0203975  0.7414126

 Al 
  0.2491882  0.2458715  0.4887011

 Al 
  0.9792956  0.4867247  0.4901985

 Al 
  0.0007834  0.7473504  0.7348832

 Al 
  0.2542387  0.5010445  0.7482798

 Al 
  0.2534243  0.7632345  0.5210348

 Al 
  0.4922467  0.5003911  0.0176538

 Al 
  0.4806569  0.7736758  0.2624004

 Al 
  0.7486337  0.4866492  0.2483491

 Al 
  0.7217502  0.7432763  0.9866913

 Al 
  0.4890934  0.0013551  0.5158606

 Al 
  0.5109586  0.2571110  0.7428345

 Al 
  0.7402134  0.9900475  0.7546173

 Al 
  0.7341159  0.2481560  0.4934582

 Al 
  0.5030407  0.5091085  0.4803079

 Al 
  0.4919484  0.7374746  0.7611529

 Al 
  0.7551037  0.4983627  0.7662244

 Al 
  0.7537845  0.7269838  0.5132753

