32 
charge = 0 
 Al 
  0.0061618  0.9652208  0.9652270

 Al 
  0.0193753  0.2649386  0.2339018

 Al 
  0.2641033  0.0145277  0.2570801

 Al 
  0.2301025  0.2698852  0.9912900

 Al 
  0.4918766  0.0219024  0.9952044

 Al 
  0.5101468  0.2486770  0.2625860

 Al 
  0.7554898  0.0015123  0.2654955

 Al 
  0.7474283  0.2362853  0.9805542

 Al 
  0.9932231  0.5108448  0.0054143

 Al 
  0.0204185  0.7467056  0.2644943

 Al 
  0.2613918  0.5093943  0.2621578

 Al 
  0.2605898  0.7330417  0.9976115

 Al 
  0.9999579  0.0046866  0.5021892

 Al 
  0.0245520  0.2359289  0.7501968

 Al 
  0.2561395  0.0202886  0.7414596

 Al 
  0.2493231  0.2458232  0.4887914

 Al 
  0.9794404  0.4860056  0.4905586

 Al 
  0.0002500  0.7475769  0.7346604

 Al 
  0.2545060  0.5007141  0.7483813

 Al 
  0.2538043  0.7632085  0.5207242

 Al 
  0.4924298  0.5007475  0.0175251

 Al 
  0.4811730  0.7736127  0.2621566

 Al 
  0.7488416  0.4864128  0.2483912

 Al 
  0.7212304  0.7433209  0.9866182

 Al 
  0.4895562  0.0019875  0.5157703

 Al 
  0.5108930  0.2572336  0.7429360

 Al 
  0.7396317  0.9899745  0.7537275

 Al 
  0.7342941  0.2479184  0.4937553

 Al 
  0.5030877  0.5097792  0.4799032

 Al 
  0.4920957  0.7372135  0.7613014

 Al 
  0.7544478  0.4982340  0.7663952

 Al 
  0.7540382  0.7263984  0.5135426

