32 
charge = 0 
 Al 
  0.0076593  0.9646131  0.9717749

 Al 
  0.0145871  0.2637790  0.2327113

 Al 
  0.2671501  0.0145414  0.2584352

 Al 
  0.2308722  0.2703827  0.9907208

 Al 
  0.4937664  0.0188493  0.9940523

 Al 
  0.5129684  0.2487476  0.2601294

 Al 
  0.7573697  0.0015878  0.2677838

 Al 
  0.7479098  0.2381008  0.9783464

 Al 
  0.9923865  0.5116925  0.0040939

 Al 
  0.0199334  0.7419707  0.2616343

 Al 
  0.2617828  0.5112160  0.2597916

 Al 
  0.2616851  0.7333238  0.9972477

 Al 
  0.0004529  0.0015408  0.5025457

 Al 
  0.0217613  0.2383533  0.7486511

 Al 
  0.2521534  0.0204668  0.7417096

 Al 
  0.2483751  0.2468541  0.4884238

 Al 
  0.9790852  0.4910846  0.4884337

 Al 
  0.0041916  0.7454037  0.7363608

 Al 
  0.2523811  0.5029627  0.7472650

 Al 
  0.2509170  0.7629152  0.5224976

 Al 
  0.4913556  0.4977031  0.0181179

 Al 
  0.4781323  0.7736065  0.2637221

 Al 
  0.7474222  0.4886157  0.2478070

 Al 
  0.7255841  0.7432516  0.9879956

 Al 
  0.4868781  0.9973157  0.5162554

 Al 
  0.5109524  0.2566271  0.7422702

 Al 
  0.7439075  0.9905549  0.7596765

 Al 
  0.7337075  0.2496324  0.4922986

 Al 
  0.5025395  0.5048698  0.4836988

 Al 
  0.4911898  0.7393174  0.7597235

 Al 
  0.7590701  0.4988614  0.7646020

 Al 
  0.7518687  0.7312596  0.5112235

