32 
charge = 0 
 Al 
  0.0085800  0.9648099  0.9769566

 Al 
  0.0111938  0.2625043  0.2324402

 Al 
  0.2681773  0.0145290  0.2587347

 Al 
  0.2323375  0.2702193  0.9906601

 Al 
  0.4947230  0.0166514  0.9934657

 Al 
  0.5141540  0.2486832  0.2579353

 Al 
  0.7585355  0.0012611  0.2687701

 Al 
  0.7485533  0.2395067  0.9775358

 Al 
  0.9919459  0.5123509  0.0029900

 Al 
  0.0192577  0.7394411  0.2596975

 Al 
  0.2617135  0.5120836  0.2584105

 Al 
  0.2619115  0.7341505  0.9970855

 Al 
  0.0006213  0.9995928  0.5024949

 Al 
  0.0188109  0.2406044  0.7472996

 Al 
  0.2500421  0.0199792  0.7425078

 Al 
  0.2478219  0.2481993  0.4884746

 Al 
  0.9795889  0.4940436  0.4876169

 Al 
  0.0065987  0.7435845  0.7375526

 Al 
  0.2509158  0.5041508  0.7462155

 Al 
  0.2490186  0.7621987  0.5230013

 Al 
  0.4909992  0.4954247  0.0180387

 Al 
  0.4770531  0.7730484  0.2644820

 Al 
  0.7466227  0.4905166  0.2471734

 Al 
  0.7287956  0.7434199  0.9896998

 Al 
  0.4859970  0.9944347  0.5164348

 Al 
  0.5105304  0.2565195  0.7419200

 Al 
  0.7466091  0.9909559  0.7627345

 Al 
  0.7341196  0.2506472  0.4921501

 Al 
  0.5019764  0.5018613  0.4869016

 Al 
  0.4908891  0.7407777  0.7582979

 Al 
  0.7617222  0.4989716  0.7628830

 Al 
  0.7501832  0.7348807  0.5094389

