32 
charge = 0 
 Al 
  0.0083449  0.9647220  0.9755656

 Al 
  0.0120836  0.2628645  0.2324811

 Al 
  0.2679756  0.0145302  0.2586939

 Al 
  0.2319056  0.2702935  0.9906589

 Al 
  0.4944941  0.0172306  0.9936055

 Al 
  0.5138904  0.2487080  0.2585355

 Al 
  0.7582409  0.0013687  0.2685486

 Al 
  0.7483664  0.2391293  0.9777041

 Al 
  0.9920487  0.5121789  0.0032882

 Al 
  0.0194557  0.7400537  0.2602012

 Al 
  0.2617519  0.5118831  0.2587533

 Al 
  0.2618818  0.7338981  0.9971239

 Al 
  0.0005866  0.0000879  0.5025246

 Al 
  0.0196389  0.2399856  0.7476672

 Al 
  0.2505569  0.0201389  0.7422615

 Al 
  0.2479593  0.2478132  0.4884449

 Al 
  0.9794131  0.4933035  0.4877939

 Al 
  0.0059948  0.7440721  0.7372358

 Al 
  0.2512957  0.5038661  0.7465026

 Al 
  0.2495075  0.7624177  0.5229184

 Al 
  0.4910685  0.4960237  0.0180944

 Al 
  0.4772722  0.7732315  0.2643013

 Al 
  0.7468219  0.4899955  0.2473504

 Al 
  0.7279503  0.7433667  0.9892134

 Al 
  0.4861690  0.9951611  0.5163940

 Al 
  0.5106690  0.2565319  0.7420053

 Al 
  0.7459173  0.9908519  0.7620019

 Al 
  0.7339624  0.2503935  0.4921390

 Al 
  0.5021348  0.5026199  0.4860341

 Al 
  0.4909423  0.7403990  0.7586840

 Al 
  0.7610650  0.4989580  0.7633620

 Al 
  0.7506349  0.7339216  0.5099129

