32 
charge = 0 
 Al 
  0.0078845  0.9646243  0.9729729

 Al 
  0.0137815  0.2635030  0.2326160

 Al 
  0.2674608  0.0145376  0.2585441

 Al 
  0.2311705  0.2703740  0.9906886

 Al 
  0.4940151  0.0183308  0.9938988

 Al 
  0.5132964  0.2487402  0.2596344

 Al 
  0.7576568  0.0015333  0.2680548

 Al 
  0.7480447  0.2384263  0.9781100

 Al 
  0.9922702  0.5118484  0.0038414

 Al 
  0.0197936  0.7413210  0.2611702

 Al 
  0.2617865  0.5114487  0.2594463

 Al 
  0.2617692  0.7334847  0.9972043

 Al 
  0.0005025  0.0010618  0.5025506

 Al 
  0.0211153  0.2388595  0.7483441

 Al 
  0.2516138  0.0203827  0.7418630

 Al 
  0.2482365  0.2471400  0.4884189

 Al 
  0.9791619  0.4918222  0.4882023

 Al 
  0.0047894  0.7449829  0.7366405

 Al 
  0.2520296  0.5032709  0.7470286

 Al 
  0.2504579  0.7627754  0.5226647

 Al 
  0.4912467  0.4971660  0.0181315

 Al 
  0.4778130  0.7735100  0.2639213

 Al 
  0.7472217  0.4890451  0.2476672

 Al 
  0.7263415  0.7432813  0.9883607

 Al 
  0.4866096  0.9966041  0.5163036

 Al 
  0.5108794  0.2565851  0.7421811

 Al 
  0.7445646  0.9906515  0.7604698

 Al 
  0.7337570  0.2498849  0.4922133

 Al 
  0.5024170  0.5041273  0.4844302

 Al 
  0.4910945  0.7396676  0.7593980

 Al 
  0.7597371  0.4989035  0.7642221

 Al 
  0.7514776  0.7321086  0.5108064

