32 
charge = 0 
 Al 
  0.0104549  0.9664027  0.9893990

 Al 
  0.0037152  0.2589055  0.2327051

 Al 
  0.2683159  0.0145859  0.2582446

 Al 
  0.2368657  0.2689050  0.9910017

 Al 
  0.4962192  0.0116591  0.9926118

 Al 
  0.5153582  0.2482488  0.2524145

 Al 
  0.7607482  0.9998663  0.2697800

 Al 
  0.7505210  0.2429249  0.9771633

 Al 
  0.9915041  0.5136553  0.0003044

 Al 
  0.0171056  0.7354636  0.2555393

 Al 
  0.2609537  0.5130402  0.2559490

 Al 
  0.2615997  0.7370019  0.9968417

 Al 
  0.0007215  0.9957985  0.5019281

 Al 
  0.0108002  0.2463442  0.7439681

 Al 
  0.2464346  0.0180437  0.7453814

 Al 
  0.2468158  0.2521063  0.4890463

 Al 
  0.9819576  0.4995087  0.4868905

 Al 
  0.0108943  0.7394708  0.7404720

 Al 
  0.2478813  0.5058747  0.7436426

 Al 
  0.2451178  0.7596666  0.5224457

 Al 
  0.4910314  0.4904831  0.0166762

 Al 
  0.4767103  0.7705757  0.2655896

 Al 
  0.7450943  0.4954421  0.2455423

 Al 
  0.7358943  0.7440114  0.9946104

 Al 
  0.4858658  0.9890760  0.5167009

 Al 
  0.5086741  0.2566940  0.7413655

 Al 
  0.7521793  0.9917566  0.7673741

 Al 
  0.7365427  0.2524887  0.4932899

 Al 
  0.5004294  0.4961821  0.4946921

 Al 
  0.4911019  0.7438048  0.7549218

 Al 
  0.7662937  0.4988763  0.7581493

 Al 
  0.7461957  0.7431352  0.5053599

