32 
charge = 0 
 Al 
  0.0102346  0.9661267  0.9878088

 Al 
  0.0046310  0.2593956  0.2326234

 Al 
  0.2684397  0.0145711  0.2583771

 Al 
  0.2362433  0.2691302  0.9909349

 Al 
  0.4960707  0.0122853  0.9926872

 Al 
  0.5152975  0.2483219  0.2531248

 Al 
  0.7605044  0.0000780  0.2697366

 Al 
  0.7502438  0.2424830  0.9771138

 Al 
  0.9915128  0.5135179  0.0006460

 Al 
  0.0174187  0.7358423  0.2560430

 Al 
  0.2610861  0.5129944  0.2562126

 Al 
  0.2616814  0.7365910  0.9968653

 Al 
  0.0007227  0.9962304  0.5020209

 Al 
  0.0118657  0.2456005  0.7443938

 Al 
  0.2468195  0.0183271  0.7449594

 Al 
  0.2469247  0.2515754  0.4889486

 Al 
  0.9815900  0.4989048  0.4869165

 Al 
  0.0104500  0.7399621  0.7400822

 Al 
  0.2482340  0.5057324  0.7439644

 Al 
  0.2455745  0.7600366  0.5226350

 Al 
  0.4909707  0.4910673  0.0169323

 Al 
  0.4766150  0.7709693  0.2654906

 Al 
  0.7452725  0.4947861  0.2457490

 Al 
  0.7350317  0.7439285  0.9939384

 Al 
  0.4857693  0.9896577  0.5166737

 Al 
  0.5089661  0.2566544  0.7414163

 Al 
  0.7515123  0.9916675  0.7669422

 Al 
  0.7361480  0.2522895  0.4930647

 Al 
  0.5006361  0.4968108  0.4937020

 Al 
  0.4910103  0.7434508  0.7553376

 Al 
  0.7658259  0.4988986  0.7587954

 Al 
  0.7466994  0.7421130  0.5058660

