32 
charge = 0 
 Al 
  0.0115749  0.9683704  0.9982835

 Al 
  0.9988045  0.2560443  0.2333684

 Al 
  0.2669125  0.0146973  0.2571841

 Al 
  0.2404398  0.2673605  0.9914757

 Al 
  0.4968752  0.0081815  0.9923655

 Al 
  0.5152765  0.2477625  0.2485087

 Al 
  0.7618769  0.9985285  0.2695547

 Al 
  0.7521905  0.2454383  0.9779578

 Al 
  0.9917714  0.5141775  0.9984431

 Al 
  0.0151205  0.7340144  0.2528501

 Al 
  0.2600379  0.5128434  0.2546879

 Al 
  0.2610044  0.7394931  0.9967390

 Al 
  0.0006571  0.9936587  0.5013502

 Al 
  0.0047535  0.2504888  0.7416007

 Al 
  0.2446030  0.0163049  0.7479778

 Al 
  0.2462898  0.2551507  0.4897097

 Al 
  0.9843139  0.5024442  0.4870501

 Al 
  0.0127518  0.7370551  0.7428098

 Al 
  0.2461252  0.5062039  0.7419435

 Al 
  0.2428122  0.7574031  0.5207304

 Al 
  0.4917021  0.4875662  0.0147728

 Al 
  0.4779813  0.7679484  0.2658891

 Al 
  0.7441389  0.4992352  0.2444409

 Al 
  0.7404633  0.7444916  0.9985694

 Al 
  0.4869289  0.9864190  0.5168185

 Al 
  0.5067633  0.2569378  0.7412158

 Al 
  0.7557361  0.9921774  0.7690028

 Al 
  0.7391565  0.2534107  0.4948765

 Al 
  0.4992587  0.4931971  0.5001089

 Al 
  0.4919571  0.7455881  0.7527338

 Al 
  0.7682664  0.4987798  0.7543315

 Al 
  0.7434570  0.7486263  0.5026496

