32 
charge = 0 
 Al 
  0.0100069  0.9658693  0.9862061

 Al 
  0.0055653  0.2598819  0.2325528

 Al 
  0.2685251  0.0145587  0.2584909

 Al 
  0.2356257  0.2693406  0.9908730

 Al 
  0.4959111  0.0129189  0.9927714

 Al 
  0.5152121  0.2483899  0.2538414

 Al 
  0.7602483  0.0002834  0.2696673

 Al 
  0.7499715  0.2420388  0.9770902

 Al 
  0.9915351  0.5133694  0.0009913

 Al 
  0.0177219  0.7362593  0.2565578

 Al 
  0.2612098  0.5129251  0.2564923

 Al 
  0.2617531  0.7361888  0.9968925

 Al 
  0.0007215  0.9966796  0.5021113

 Al 
  0.0129301  0.2448517  0.7448233

 Al 
  0.2472254  0.0186043  0.7445485

 Al 
  0.2470398  0.2510482  0.4888570

 Al 
  0.9812361  0.4982711  0.4869598

 Al 
  0.0099710  0.7404683  0.7396961

 Al 
  0.2486003  0.5055653  0.7442924

 Al 
  0.2460472  0.7603968  0.5227922

 Al 
  0.4909250  0.4916724  0.0171662

 Al 
  0.4765569  0.7713430  0.2653804

 Al 
  0.7454569  0.4941352  0.2459581

 Al 
  0.7341481  0.7438468  0.9932738

 Al 
  0.4857012  0.9902728  0.5166440

 Al 
  0.5092446  0.2566172  0.7414732

 Al 
  0.7508304  0.9915734  0.7664633

 Al 
  0.7357730  0.2520791  0.4928568

 Al 
  0.5008428  0.4974717  0.4927009

 Al 
  0.4909361  0.7430857  0.7557633

 Al 
  0.7653198  0.4989196  0.7594327

 Al 
  0.7472081  0.7410722  0.5063796

