32 
charge = 0 
 Al 
  0.0121071  0.9699087  0.0033575

 Al 
  0.9961858  0.2543302  0.2339117

 Al 
  0.2655289  0.0147654  0.2563239

 Al 
  0.2424979  0.2662244  0.9918370

 Al 
  0.4971437  0.0061816  0.9923828

 Al 
  0.5149102  0.2474123  0.2463739

 Al 
  0.7622890  0.9976598  0.2689904

 Al 
  0.7532276  0.2469222  0.9788513

 Al 
  0.9922244  0.5142023  0.9974469

 Al 
  0.0137518  0.7337483  0.2514096

 Al 
  0.2593659  0.5123088  0.2541025

 Al 
  0.2605935  0.7410561  0.9967167

 Al 
  0.0005965  0.9926736  0.5010148

 Al 
  0.0012920  0.2528018  0.7402591

 Al 
  0.2437788  0.0151837  0.7496275

 Al 
  0.2460423  0.2569081  0.4901886

 Al 
  0.9859005  0.5037721  0.4873769

 Al 
  0.0132184  0.7360452  0.7443134

 Al 
  0.2453257  0.5059514  0.7410883

 Al 
  0.2417281  0.7559712  0.5191797

 Al 
  0.4923840  0.4862767  0.0132531

 Al 
  0.4793315  0.7660648  0.2658099

 Al 
  0.7436043  0.5015123  0.2438852

 Al 
  0.7428457  0.7447812  0.0009962

 Al 
  0.4879301  0.9854450  0.5168494

 Al 
  0.5054354  0.2570405  0.7412739

 Al 
  0.7576655  0.9923519  0.7692837

 Al 
  0.7409683  0.2537709  0.4960089

 Al 
  0.4985978  0.4919596  0.5030630

 Al 
  0.4927405  0.7464296  0.7516274

 Al 
  0.7687949  0.4988119  0.7519677

 Al 
  0.7419905  0.7515296  0.5012264

