32 
charge = 0 
 Al 
  0.0118620  0.9691191  0.0009059

 Al 
  0.9974321  0.2551643  0.2336332

 Al 
  0.2662554  0.0147332  0.2567645

 Al 
  0.2415054  0.2667999  0.9916514

 Al 
  0.4970224  0.0071519  0.9923581

 Al 
  0.5151181  0.2475892  0.2473937

 Al 
  0.7621157  0.9980880  0.2693109

 Al 
  0.7527189  0.2461994  0.9783748

 Al 
  0.9919732  0.5142233  0.9979197

 Al 
  0.0144399  0.7338213  0.2520964

 Al 
  0.2597062  0.5126120  0.2543760

 Al 
  0.2607965  0.7402876  0.9967229

 Al 
  0.0006262  0.9931253  0.5011744

 Al 
  0.0029590  0.2516930  0.7409064

 Al 
  0.2441587  0.0157393  0.7488157

 Al 
  0.2461586  0.2560603  0.4899473

 Al 
  0.9851109  0.5031644  0.4871962

 Al 
  0.0130563  0.7364883  0.7435684

 Al 
  0.2456896  0.5061210  0.7414868

 Al 
  0.2422269  0.7566754  0.5199879

 Al 
  0.4920227  0.4868558  0.0140340

 Al 
  0.4786162  0.7670140  0.2658767

 Al 
  0.7438629  0.5004010  0.2441439

 Al 
  0.7417182  0.7446389  0.9998082

 Al 
  0.4874103  0.9858571  0.5168383

 Al 
  0.5060999  0.2569984  0.7412294

 Al 
  0.7567410  0.9922751  0.7692132

 Al 
  0.7400624  0.2536137  0.4954421

 Al 
  0.4989147  0.4925090  0.5016521

 Al 
  0.4923321  0.7460423  0.7521459

 Al 
  0.7686043  0.4987822  0.7531286

 Al 
  0.7426872  0.7501535  0.5018984

