32 
charge = 0 
 Al 
  0.0126776  0.9730645  0.0109512

 Al 
  0.9926217  0.2517054  0.2349995

 Al 
  0.2625303  0.0147864  0.2546508

 Al 
  0.2454755  0.2640513  0.9925907

 Al 
  0.4974692  0.0030852  0.9927306

 Al 
  0.5138830  0.2467563  0.2434310

 Al 
  0.7624177  0.9962440  0.2672838

 Al 
  0.7548649  0.2492562  0.9809651

 Al 
  0.9934830  0.5135897  0.9961351

 Al 
  0.0112507  0.7342891  0.2494060

 Al 
  0.2581097  0.5107123  0.2533154

 Al 
  0.2599661  0.7435845  0.9967749

 Al 
  0.0005185  0.9916279  0.5006188

 Al 
  0.9963158  0.2560665  0.7382382

 Al 
  0.2428023  0.0132481  0.7522759

 Al 
  0.2456982  0.2594525  0.4910957

 Al 
  0.9886553  0.5052213  0.4882271

 Al 
  0.0127865  0.7354042  0.7468912

 Al 
  0.2445324  0.5047547  0.7400859

 Al 
  0.2405760  0.7536558  0.5158779

 Al 
  0.4939446  0.4851765  0.0101530

 Al 
  0.4823697  0.7625798  0.2651379

 Al 
  0.7427949  0.5050567  0.2432639

 Al 
  0.7460200  0.7452614  0.0048550

 Al 
  0.4899770  0.9850354  0.5167999

 Al 
  0.5030593  0.2569935  0.7416823

 Al 
  0.7604673  0.9924855  0.7686191

 Al 
  0.7441550  0.2539973  0.4979753

 Al 
  0.4976845  0.4909621  0.5071420

 Al 
  0.4944112  0.7473269  0.7502661

 Al 
  0.7684087  0.4992042  0.7481362

 Al 
  0.7400735  0.7553636  0.4994258

