32 
charge = 0 
 Al 
  0.0126207  0.9725682  0.0099339

 Al 
  0.9930697  0.2520581  0.2348312

 Al 
  0.2630006  0.0147951  0.2549032

 Al 
  0.2450881  0.2643817  0.9924694

 Al 
  0.4974271  0.0035122  0.9926563

 Al 
  0.5140562  0.2468541  0.2438023

 Al 
  0.7624437  0.9964408  0.2675858

 Al 
  0.7546421  0.2489332  0.9806198

 Al 
  0.9932664  0.5137308  0.9962947

 Al 
  0.0116232  0.7341443  0.2496634

 Al 
  0.2582979  0.5109908  0.2534206

 Al 
  0.2600490  0.7432318  0.9967576

 Al 
  0.0005260  0.9917331  0.5006584

 Al 
  0.9969568  0.2556482  0.7385117

 Al 
  0.2429174  0.0135315  0.7519120

 Al 
  0.2457453  0.2591221  0.4909571

 Al 
  0.9882580  0.5050666  0.4880860

 Al 
  0.0129362  0.7354116  0.7465200

 Al 
  0.2446055  0.5049800  0.7401960

 Al 
  0.2406911  0.7539775  0.5163965

 Al 
  0.4936934  0.4852507  0.0106368

 Al 
  0.4818858  0.7630996  0.2652777

 Al 
  0.7429051  0.5045753  0.2433258

 Al 
  0.7456240  0.7451908  0.0043240

 Al 
  0.4896664  0.9850032  0.5168172

 Al 
  0.5034082  0.2570219  0.7415982

 Al 
  0.7600948  0.9924781  0.7687924

 Al 
  0.7436934  0.2539924  0.4976957

 Al 
  0.4977984  0.4910277  0.5066271

 Al 
  0.4941500  0.7472378  0.7504232

 Al 
  0.7685597  0.4991151  0.7486709

 Al 
  0.7403037  0.7548933  0.4996362

