32 
charge = 0 
 Al 
  0.0124029  0.9711772  0.0067670

 Al 
  0.9945263  0.2531545  0.2343535

 Al 
  0.2643273  0.0147951  0.2556334

 Al 
  0.2438580  0.2653284  0.9921365

 Al 
  0.4972959  0.0048141  0.9924830

 Al 
  0.5145240  0.2471388  0.2450077

 Al 
  0.7624326  0.9970398  0.2683729

 Al 
  0.7539528  0.2479506  0.9796718

 Al 
  0.9926910  0.5140439  0.9968244

 Al 
  0.0127048  0.7338411  0.2504864

 Al 
  0.2588436  0.5117247  0.2537449

 Al 
  0.2603089  0.7421625  0.9967254

 Al 
  0.0005569  0.9921328  0.5008131

 Al 
  0.9990100  0.2543055  0.7393570

 Al 
  0.2433060  0.0143619  0.7507945

 Al 
  0.2458876  0.2580714  0.4905623

 Al 
  0.9870774  0.5045060  0.4877023

 Al 
  0.0132135  0.7356010  0.7454173

 Al 
  0.2449025  0.5055492  0.7405883

 Al 
  0.2411304  0.7549577  0.5178556

 Al 
  0.4929966  0.4856368  0.0120006

 Al 
  0.4805344  0.7646082  0.2656069

 Al 
  0.7432429  0.5030865  0.2435659

 Al 
  0.7443320  0.7449854  0.0026979

 Al 
  0.4887691  0.9850837  0.5168457

 Al 
  0.5044317  0.2570603  0.7414002

 Al 
  0.7589315  0.9924335  0.7691599

 Al 
  0.7423271  0.2539243  0.4968554

 Al 
  0.4981721  0.4913705  0.5049552

 Al 
  0.4934112  0.7468950  0.7509665

 Al 
  0.7688221  0.4989184  0.7502933

 Al 
  0.7410772  0.7533402  0.5003564

