32 
charge = 0 
 Al 
  0.0128174  0.9778427  0.0187924

 Al 
  0.9894782  0.2490743  0.2366467

 Al 
  0.2581840  0.0144745  0.2524330

 Al 
  0.2483058  0.2610242  0.9938048

 Al 
  0.4978961  0.9995718  0.9936563

 Al 
  0.5121331  0.2459160  0.2408631

 Al 
  0.7616418  0.9946723  0.2640179

 Al 
  0.7566210  0.2518947  0.9843696

 Al 
  0.9957354  0.5117086  0.9951240

 Al 
  0.0079254  0.7361999  0.2475311

 Al 
  0.2564279  0.5077793  0.2523662

 Al 
  0.2593634  0.7464519  0.9970422

 Al 
  0.0005099  0.9912257  0.5005284

 Al 
  0.9917727  0.2590478  0.7360564

 Al 
  0.2419868  0.0107049  0.7551532

 Al 
  0.2452750  0.2618162  0.4923618

 Al 
  0.9920487  0.5059935  0.4896032

 Al 
  0.0105725  0.7363695  0.7500631

 Al 
  0.2443344  0.5022808  0.7395797

 Al 
  0.2401874  0.7510457  0.5110316

 Al 
  0.4963603  0.4855106  0.0055542

 Al 
  0.4869375  0.7579662  0.2634350

 Al 
  0.7419497  0.5087731  0.2431204

 Al 
  0.7488367  0.7459581  0.0090441

 Al 
  0.4927343  0.9863423  0.5164819

 Al 
  0.5000074  0.2564477  0.7427083

 Al 
  0.7633867  0.9923878  0.7663692

 Al 
  0.7480607  0.2537374  0.5002178

 Al 
  0.4969308  0.4912554  0.5107024

 Al 
  0.4968603  0.7476350  0.7493379

 Al 
  0.7660128  0.5004418  0.7437812

 Al 
  0.7387085  0.7584513  0.4982216

