32 
charge = 0 
 Al 
  0.0127246  0.9735793  0.0119549

 Al 
  0.9921885  0.2513601  0.2351740

 Al 
  0.2620452  0.0147715  0.2543933

 Al 
  0.2458529  0.2637122  0.9927169

 Al 
  0.4975125  0.0026595  0.9928135

 Al 
  0.5136998  0.2466573  0.2430721

 Al 
  0.7623769  0.9960485  0.2669608

 Al 
  0.7550864  0.2495780  0.9813264

 Al 
  0.9937132  0.5134300  0.9959841

 Al 
  0.0108720  0.7344550  0.2491560

 Al 
  0.2579179  0.5104153  0.2532090

 Al 
  0.2598869  0.7439359  0.9967947

 Al 
  0.0005124  0.9915363  0.5005841

 Al 
  0.9956933  0.2564725  0.7379659

 Al 
  0.2426910  0.0129610  0.7526385

 Al 
  0.2456500  0.2597730  0.4912368

 Al 
  0.9890575  0.5053611  0.4883743

 Al 
  0.0126095  0.7354240  0.7472662

 Al 
  0.2444706  0.5045109  0.7399869

 Al 
  0.2404770  0.7533340  0.5153433

 Al 
  0.4942057  0.4851270  0.0096530

 Al 
  0.4828709  0.7620514  0.2649844

 Al 
  0.7426872  0.5055331  0.2432107

 Al 
  0.7464036  0.7453344  0.0053822

 Al 
  0.4902963  0.9850960  0.5167789

 Al 
  0.5027053  0.2569588  0.7417739

 Al 
  0.7608349  0.9924880  0.7684211

 Al 
  0.7446203  0.2539936  0.4982538

 Al 
  0.4975744  0.4909212  0.5076395

 Al 
  0.4946822  0.7474036  0.7501188

 Al 
  0.7682268  0.4993070  0.7476016

 Al 
  0.7398569  0.7558116  0.4992302

