32 
charge = 0 
 Al 
  0.0128348  0.9758589  0.0158841

 Al 
  0.9905821  0.2500260  0.2359524

 Al 
  0.2599438  0.0146503  0.2533055

 Al 
  0.2472860  0.2622531  0.9932912

 Al 
  0.4977068  0.0009319  0.9932367

 Al 
  0.5128694  0.2462428  0.2417504

 Al 
  0.7620588  0.9952676  0.2654349

 Al 
  0.7559626  0.2508811  0.9829476

 Al 
  0.9947750  0.5125848  0.9954520

 Al 
  0.0092594  0.7353262  0.2482055

 Al 
  0.2571024  0.5090354  0.2527573

 Al 
  0.2595824  0.7453554  0.9969110

 Al 
  0.0005012  0.9912888  0.5005124

 Al 
  0.9933691  0.2579922  0.7368806

 Al 
  0.2422801  0.0117346  0.7540728

 Al 
  0.2454470  0.2609797  0.4918494

 Al 
  0.9907208  0.5057918  0.4890315

 Al 
  0.0116195  0.7357841  0.7488194

 Al 
  0.2443320  0.5033501  0.7396923

 Al 
  0.2402245  0.7520407  0.5130105

 Al 
  0.4953629  0.4851876  0.0074526

 Al 
  0.4850663  0.7598102  0.2642060

 Al 
  0.7422628  0.5073994  0.2430944

 Al 
  0.7478318  0.7456586  0.0074736

 Al 
  0.4916415  0.9856294  0.5166477

 Al 
  0.5012178  0.2567274  0.7422405

 Al 
  0.7622853  0.9924558  0.7673927

 Al 
  0.7465385  0.2538983  0.4993738

 Al 
  0.4971821  0.4909806  0.5094723

 Al 
  0.4958604  0.7476016  0.7496213

 Al 
  0.7671699  0.4998577  0.7454470

 Al 
  0.7391231  0.7574167  0.4985793

