32 
charge = 0 
 Al 
  0.0125514  0.9817769  0.0235904

 Al 
  0.9877766  0.2476004  0.2380946

 Al 
  0.2548983  0.0139659  0.2509084

 Al 
  0.2499406  0.2586704  0.9948493

 Al 
  0.4983578  0.9971041  0.9945721

 Al 
  0.5106628  0.2453517  0.2395748

 Al 
  0.7605477  0.9936550  0.2610688

 Al 
  0.7577434  0.2536916  0.9871776

 Al 
  0.9976771  0.5097211  0.9947094

 Al 
  0.0054143  0.7380637  0.2464668

 Al 
  0.2551631  0.5052151  0.2515383

 Al 
  0.2589822  0.7483664  0.9973590

 Al 
  0.0005520  0.9913519  0.5006943

 Al 
  0.9893656  0.2606715  0.7346691

 Al 
  0.2414930  0.0087087  0.7569885

 Al 
  0.2449384  0.2630662  0.4933159

 Al 
  0.9944433  0.5061321  0.4907084

 Al 
  0.0082261  0.7379981  0.7523291

 Al 
  0.2445275  0.5001337  0.7396342

 Al 
  0.2404374  0.7493144  0.5072459

 Al 
  0.4982934  0.4866096  0.0018378

 Al 
  0.4905240  0.7545245  0.2617507

 Al 
  0.7414410  0.5109945  0.2434310

 Al 
  0.7504579  0.7466215  0.0116640

 Al 
  0.4947218  0.9881677  0.5160277

 Al 
  0.4977823  0.2557299  0.7437367

 Al 
  0.7653037  0.9921947  0.7641948

 Al 
  0.7507648  0.2532932  0.5016039

 Al 
  0.4965992  0.4921489  0.5124796

 Al 
  0.4987798  0.7474840  0.7490236

 Al 
  0.7633261  0.5017908  0.7408755

 Al 
  0.7383100  0.7598795  0.4978763

