32 
charge = 0 
 Al 
  0.0126986  0.9801049  0.0216858

 Al 
  0.9884387  0.2481684  0.2374660

 Al 
  0.2562608  0.0142047  0.2515234

 Al 
  0.2492946  0.2596592  0.9944025

 Al 
  0.4981461  0.9981239  0.9941736

 Al 
  0.5112878  0.2455782  0.2400599

 Al 
  0.7610490  0.9940647  0.2623385

 Al 
  0.7572917  0.2529565  0.9859883

 Al 
  0.9968479  0.5105985  0.9948555

 Al 
  0.0064626  0.7372593  0.2468826

 Al 
  0.2556903  0.5063116  0.2519009

 Al 
  0.2591382  0.7475880  0.9972155

 Al 
  0.0005309  0.9912665  0.5006064

 Al 
  0.9902888  0.2600441  0.7352223

 Al 
  0.2416922  0.0095527  0.7562509

 Al 
  0.2450807  0.2625922  0.4929199

 Al 
  0.9934582  0.5061037  0.4902443

 Al 
  0.0092533  0.7372457  0.7513935

 Al 
  0.2444235  0.5010433  0.7395735

 Al 
  0.2402876  0.7500186  0.5088325

 Al 
  0.4974803  0.4860836  0.0034095

 Al 
  0.4890203  0.7559564  0.2624870

 Al 
  0.7416415  0.5101208  0.2432627

 Al 
  0.7498144  0.7463282  0.0106208

 Al 
  0.4939038  0.9873397  0.5162393

 Al 
  0.4987018  0.2560579  0.7432862

 Al 
  0.7645240  0.9922826  0.7651317

 Al 
  0.7496609  0.2534986  0.5010569

 Al 
  0.4967180  0.4917269  0.5118125

 Al 
  0.4979741  0.7475744  0.7491250

 Al 
  0.7645166  0.5011930  0.7420561

 Al 
  0.7384226  0.7593523  0.4979766

