32 
charge = 0 
 Al 
  0.0117271  0.9874722  0.0288983

 Al 
  0.9859871  0.2461883  0.2404027

 Al 
  0.2506138  0.0129412  0.2491758

 Al 
  0.2517648  0.2553958  0.9964074

 Al 
  0.4992599  0.9938543  0.9960150

 Al 
  0.5085441  0.2447069  0.2384152

 Al 
  0.7585107  0.9924769  0.2566581

 Al 
  0.7590713  0.2559502  0.9911601

 Al 
  0.0004963  0.5064811  0.9944570

 Al 
  0.0020333  0.7408297  0.2453740

 Al 
  0.2534602  0.5014554  0.2501596

 Al 
  0.2584526  0.7507079  0.9979333

 Al 
  0.0006522  0.9918779  0.5011002

 Al 
  0.9870353  0.2623236  0.7331617

 Al 
  0.2408841  0.0058487  0.7591443

 Al 
  0.2444842  0.2641775  0.4945609

 Al 
  0.9974989  0.5060517  0.4922120

 Al 
  0.0045542  0.7409905  0.7552906

 Al 
  0.2450139  0.4971561  0.7401663

 Al 
  0.2412851  0.7471932  0.5020630

 Al 
  0.5009740  0.4888557  0.9965831

 Al 
  0.4954111  0.7499109  0.2590726

 Al 
  0.7409188  0.5133199  0.2443184

 Al 
  0.7523402  0.7477427  0.0145785

 Al 
  0.4972736  0.9913915  0.5151342

 Al 
  0.4948951  0.2543921  0.7453505

 Al 
  0.7676514  0.9918977  0.7609834

 Al 
  0.7540790  0.2524491  0.5030753

 Al 
  0.4963665  0.4938728  0.5140377

 Al 
  0.5014244  0.7470125  0.7489060

 Al 
  0.7589290  0.5040010  0.7373224

 Al 
  0.7384127  0.7610749  0.4978838

