32 
charge = 0 
 Al 
  0.0123422  0.9835738  0.0254517

 Al 
  0.9871430  0.2470732  0.2387951

 Al 
  0.2534862  0.0136763  0.2503020

 Al 
  0.2505705  0.2576221  0.9953356

 Al 
  0.4986127  0.9960435  0.9950151

 Al 
  0.5099921  0.2451265  0.2391354

 Al 
  0.7599550  0.9932466  0.2596852

 Al 
  0.7581951  0.2544428  0.9884474

 Al 
  0.9985681  0.5087347  0.9945931

 Al 
  0.0043166  0.7389374  0.2460720

 Al 
  0.2546099  0.5040307  0.2511287

 Al 
  0.2588164  0.7491535  0.9975261

 Al 
  0.0005779  0.9914843  0.5008081

 Al 
  0.9885080  0.2612668  0.7341307

 Al 
  0.2412900  0.0078041  0.7577249

 Al 
  0.2447899  0.2634981  0.4937256

 Al 
  0.9954532  0.5061296  0.4911960

 Al 
  0.0070875  0.7388817  0.7532981

 Al 
  0.2446649  0.4991684  0.7397517

 Al 
  0.2406539  0.7486028  0.5055727

 Al 
  0.4991547  0.4872519  0.0001621

 Al 
  0.4921056  0.7530271  0.2609314

 Al 
  0.7412504  0.5118323  0.2436624

 Al 
  0.7510965  0.7469568  0.0126850

 Al 
  0.4955646  0.9891255  0.5157727

 Al 
  0.4968306  0.2553426  0.7442354

 Al 
  0.7660933  0.9920969  0.7631788

 Al 
  0.7518823  0.2530481  0.5021323

 Al 
  0.4965002  0.4926538  0.5130810

 Al 
  0.4996312  0.7473566  0.7489530

 Al 
  0.7619870  0.5024640  0.7396812

 Al 
  0.7382679  0.7603460  0.4978281

