32 
charge = 0 
 Al 
  0.0122135  0.9845156  0.0263551

 Al 
  0.9868385  0.2468281  0.2391713

 Al 
  0.2527684  0.0135117  0.2500050

 Al 
  0.2508787  0.2570789  0.9955918

 Al 
  0.4987575  0.9955027  0.9952527

 Al 
  0.5096418  0.2450176  0.2389350

 Al 
  0.7596258  0.9930461  0.2589562

 Al 
  0.7584191  0.2548215  0.9891070

 Al 
  0.9990347  0.5082038  0.9945473

 Al 
  0.0037535  0.7393966  0.2458839

 Al 
  0.2543265  0.5034082  0.2509059

 Al 
  0.2587298  0.7495471  0.9976189

 Al 
  0.0005940  0.9915660  0.5008737

 Al 
  0.9881058  0.2615489  0.7338721

 Al 
  0.2411886  0.0073313  0.7580899

 Al 
  0.2447144  0.2636936  0.4939335

 Al 
  0.9959655  0.5061173  0.4914472

 Al 
  0.0064811  0.7393693  0.7537919

 Al 
  0.2447428  0.4986721  0.7398322

 Al 
  0.2407876  0.7482464  0.5047114

 Al 
  0.4996003  0.4876157  0.9992896

 Al 
  0.4929199  0.7522586  0.2604921

 Al 
  0.7411601  0.5122321  0.2438035

 Al 
  0.7514121  0.7471400  0.0131813

 Al 
  0.4959915  0.9896515  0.5156279

 Al 
  0.4963467  0.2551272  0.7445015

 Al 
  0.7664880  0.9920462  0.7626467

 Al 
  0.7524417  0.2529120  0.5023848

 Al 
  0.4964581  0.4929348  0.5133521

 Al 
  0.5000705  0.7472798  0.7489295

 Al 
  0.7612655  0.5028266  0.7390835

 Al 
  0.7382753  0.7605539  0.4978231

