32 
charge = 0 
 Al 
  0.0119054  0.9864685  0.0280840

 Al 
  0.9862593  0.2463838  0.2399757

 Al 
  0.2513279  0.0131442  0.2494406

 Al 
  0.2514764  0.2559638  0.9961289

 Al 
  0.4990805  0.9944050  0.9957527

 Al 
  0.5089166  0.2448060  0.2385736

 Al 
  0.7589030  0.9926600  0.2574390

 Al 
  0.7588585  0.2555765  0.9904671

 Al 
  0.0000012  0.5070739  0.9944780

 Al 
  0.0026088  0.7403445  0.2455336

 Al 
  0.2537498  0.5021187  0.2504208

 Al 
  0.2585478  0.7503267  0.9978219

 Al 
  0.0006312  0.9917640  0.5010210

 Al 
  0.9873682  0.2620786  0.7333845

 Al 
  0.2409856  0.0063512  0.7588015

 Al 
  0.2445597  0.2640352  0.4943530

 Al 
  0.9969902  0.5060777  0.4919571

 Al 
  0.0052114  0.7404275  0.7547906

 Al 
  0.2449198  0.4976622  0.7400401

 Al 
  0.2411032  0.7475397  0.5029516

 Al 
  0.5005124  0.4884189  0.9974964

 Al 
  0.4945770  0.7506980  0.2595614

 Al 
  0.7409943  0.5129783  0.2441315

 Al 
  0.7520346  0.7475335  0.0141317

 Al 
  0.4968479  0.9907863  0.5153086

 Al 
  0.4953765  0.2546508  0.7450597

 Al 
  0.7672689  0.9919447  0.7615452

 Al 
  0.7535431  0.2526125  0.5028588

 Al 
  0.4963913  0.4935461  0.5138322

 Al 
  0.5009690  0.7471066  0.7489060

 Al 
  0.7597322  0.5035964  0.7379016

 Al 
  0.7383471  0.7609190  0.4978516

