32 
charge = 0 
 Al 
  0.0087842  0.9985013  0.0343807

 Al 
  0.9839872  0.2455015  0.2458554

 Al 
  0.2441154  0.0101443  0.2476449

 Al 
  0.2541755  0.2494097  0.9995693

 Al 
  0.5018489  0.9884152  0.9990953

 Al 
  0.5045282  0.2440473  0.2377259

 Al 
  0.7532498  0.9913321  0.2483095

 Al 
  0.7607693  0.2594067  0.9984345

 Al 
  0.0058054  0.4996102  0.9947837

 Al 
  0.9964383  0.7458022  0.2444990

 Al 
  0.2505124  0.4943010  0.2466425

 Al 
  0.2571618  0.7539763  0.9995334

 Al 
  0.0010816  0.9935659  0.5020135

 Al 
  0.9852767  0.2639189  0.7321457

 Al 
  0.2399015  0.0003502  0.7619004

 Al 
  0.2438122  0.2641948  0.4965175

 Al 
  0.0022561  0.5057547  0.4946933

 Al 
  0.9974890  0.7476808  0.7602322

 Al 
  0.2460745  0.4924137  0.7424286

 Al 
  0.2439991  0.7441463  0.4930189

 Al 
  0.5057708  0.4945263  0.9871306

 Al 
  0.5035568  0.7419794  0.2533055

 Al 
  0.7406898  0.5150500  0.2471264

 Al 
  0.7551854  0.7501745  0.0174892

 Al 
  0.5012933  0.9988355  0.5127048

 Al 
  0.4904633  0.2508267  0.7485731

 Al 
  0.7708393  0.9918135  0.7552200

 Al 
  0.7584266  0.2503280  0.5042139

 Al 
  0.4964333  0.4977266  0.5144906

 Al 
  0.5059849  0.7460571  0.7492909

 Al 
  0.7497686  0.5085540  0.7322397

 Al 
  0.7403210  0.7616541  0.4987884

