32 
charge = 0 
 Al 
  0.0094364  0.9965868  0.0339278

 Al 
  0.9842025  0.2454111  0.2447824

 Al 
  0.2450374  0.0107136  0.2477018

 Al 
  0.2538513  0.2504146  0.9990075

 Al 
  0.5013106  0.9892703  0.9985323

 Al 
  0.5052114  0.2440981  0.2377098

 Al 
  0.7543018  0.9913928  0.2496993

 Al 
  0.7605688  0.2588931  0.9972279

 Al 
  0.0049082  0.5008366  0.9946500

 Al 
  0.9972947  0.7450027  0.2445263

 Al 
  0.2509938  0.4955175  0.2473529

 Al 
  0.2574316  0.7535456  0.9991931

 Al 
  0.0009727  0.9932231  0.5018613

 Al 
  0.9853324  0.2637815  0.7320999

 Al 
  0.2400562  0.0013007  0.7615675

 Al 
  0.2438988  0.2644164  0.4962242

 Al 
  0.0015482  0.5057868  0.4943122

 Al 
  0.9986647  0.7464878  0.7594488

 Al 
  0.2459024  0.4931043  0.7419138

 Al 
  0.2434372  0.7445671  0.4944891

 Al 
  0.5049762  0.4934384  0.9886726

 Al 
  0.5023068  0.7432565  0.2543575

 Al 
  0.7406329  0.5150463  0.2465435

 Al 
  0.7547485  0.7497525  0.0172776

 Al 
  0.5006856  0.9974469  0.5132023

 Al 
  0.4911019  0.2515507  0.7480162

 Al 
  0.7704421  0.9917393  0.7561420

 Al 
  0.7579031  0.2507351  0.5041966

 Al 
  0.4963814  0.4970459  0.5146639

 Al 
  0.5052634  0.7461796  0.7491832

 Al 
  0.7513663  0.5077731  0.7329414

 Al 
  0.7398309  0.7616863  0.4985780

