32 
charge = 0 
 Al 
  0.0084402  0.9994369  0.0345144

 Al 
  0.9839030  0.2455831  0.2464036

 Al 
  0.2437033  0.0098498  0.2476548

 Al 
  0.2543216  0.2489246  0.9998465

 Al 
  0.5021274  0.9880130  0.9993750

 Al 
  0.5041966  0.2440349  0.2377568

 Al 
  0.7527115  0.9913296  0.2476462

 Al 
  0.7608497  0.2596443  0.9990137

 Al 
  0.0062398  0.4990087  0.9948629

 Al 
  0.9960423  0.7461809  0.2445077

 Al 
  0.2502809  0.4937119  0.2462774

 Al 
  0.2570195  0.7541632  0.9997129

 Al 
  0.0011423  0.9937392  0.5020841

 Al 
  0.9852891  0.2639634  0.7322088

 Al 
  0.2398285  0.9998874  0.7620378

 Al 
  0.2437763  0.2640476  0.4966524

 Al 
  0.0025816  0.5057460  0.4948715

 Al 
  0.9969271  0.7482637  0.7606034

 Al 
  0.2461537  0.4921019  0.7427009

 Al 
  0.2442886  0.7439607  0.4923184

 Al 
  0.5061519  0.4950708  0.9863967

 Al 
  0.5041347  0.7413717  0.2527845

 Al 
  0.7407381  0.5149980  0.2474259

 Al 
  0.7553908  0.7503775  0.0175387

 Al 
  0.5015754  0.9995285  0.5124486

 Al 
  0.4901750  0.2504554  0.7488441

 Al 
  0.7710039  0.9918705  0.7547857

 Al 
  0.7586407  0.2501238  0.5041916

 Al 
  0.4964618  0.4980570  0.5143632

 Al 
  0.5063215  0.7460126  0.7493490

 Al 
  0.7489951  0.5089278  0.7319291

 Al 
  0.7405871  0.7616195  0.4988973

