32 
charge = 0 
 Al 
  0.0061123  0.0048030  0.0340429

 Al 
  0.9837075  0.2465819  0.2499257

 Al 
  0.2418779  0.0079154  0.2482464

 Al 
  0.2549812  0.2462180  0.0014479

 Al 
  0.5039132  0.9859376  0.0010396

 Al 
  0.5023365  0.2441302  0.2382246

 Al 
  0.7492686  0.9917096  0.2440882

 Al 
  0.7610477  0.2608349  0.0021793

 Al 
  0.0086481  0.4955361  0.9954953

 Al 
  0.9940956  0.7481808  0.2448456

 Al 
  0.2490112  0.4904138  0.2439248

 Al 
  0.2560467  0.7548809  0.0009393

 Al 
  0.0015940  0.9948072  0.5024405

 Al 
  0.9858720  0.2639411  0.7331741

 Al 
  0.2394547  0.9972291  0.7624647

 Al 
  0.2436785  0.2626516  0.4973380

 Al 
  0.0041619  0.5058029  0.4957972

 Al 
  0.9939248  0.7515296  0.7625637

 Al 
  0.2465497  0.4906762  0.7445436

 Al 
  0.2461425  0.7431600  0.4885080

 Al 
  0.5082607  0.4983639  0.9824972

 Al 
  0.5069724  0.7381305  0.2497005

 Al 
  0.7413272  0.5139226  0.2493280

 Al 
  0.7564898  0.7514430  0.0170561

 Al 
  0.5029999  0.0036756  0.5107643

 Al 
  0.4888718  0.2480607  0.7503799

 Al 
  0.7714816  0.9925387  0.7525321

 Al 
  0.7592718  0.2488998  0.5036496

 Al 
  0.4966685  0.4998750  0.5130117

 Al 
  0.5080355  0.7460200  0.7497166

 Al 
  0.7447243  0.5109190  0.7305851

 Al 
  0.7424719  0.7612086  0.4995520

