32 
charge = 0 
 Al 
  0.0080850  0.0003589  0.0345862

 Al 
  0.9838337  0.2456883  0.2469618

 Al 
  0.2433234  0.0095478  0.2476907

 Al 
  0.2544552  0.2484506  0.0001188

 Al 
  0.5024108  0.9876281  0.9996535

 Al 
  0.5038723  0.2440300  0.2378001

 Al 
  0.7521645  0.9913457  0.2470026

 Al 
  0.7609165  0.2598696  0.9995755

 Al 
  0.0066630  0.4984147  0.9949495

 Al 
  0.9956673  0.7465460  0.2445300

 Al 
  0.2500569  0.4931365  0.2459049

 Al 
  0.2568734  0.7543302  0.9998985

 Al 
  0.0012066  0.9939149  0.5021521

 Al 
  0.9853262  0.2639931  0.7323004

 Al 
  0.2397592  0.9994307  0.7621553

 Al 
  0.2437454  0.2638756  0.4967811

 Al 
  0.0028885  0.5057411  0.4950423

 Al 
  0.9963838  0.7488342  0.7609599

 Al 
  0.2462304  0.4918110  0.7429830

 Al 
  0.2445832  0.7437911  0.4916378

 Al 
  0.5065244  0.4956178  0.9856888

 Al 
  0.5046817  0.7407851  0.2522672

 Al 
  0.7408000  0.5149089  0.2477303

 Al 
  0.7555888  0.7505730  0.0175511

 Al 
  0.5018440  0.0002190  0.5121850

 Al 
  0.4899077  0.2500755  0.7491102

 Al 
  0.7711438  0.9919410  0.7543686

 Al 
  0.7588238  0.2499183  0.5041495

 Al 
  0.4964940  0.4983800  0.5142072

 Al 
  0.5066445  0.7459792  0.7494084

 Al 
  0.7482377  0.5092916  0.7316445

 Al 
  0.7408668  0.7615749  0.4990062

