32 
charge = 0 
 Al 
  0.0047535  0.0074043  0.0330021

 Al 
  0.9838028  0.2474160  0.2518898

 Al 
  0.2413457  0.0068016  0.2488775

 Al 
  0.2552040  0.2449483  0.0022289

 Al 
  0.5048871  0.9850911  0.0018749

 Al 
  0.5014653  0.2442961  0.2386392

 Al 
  0.7473702  0.9921712  0.2425622

 Al 
  0.7609549  0.2613126  0.0036087

 Al 
  0.0097508  0.4938543  0.9959198

 Al 
  0.9933753  0.7490458  0.2451896

 Al 
  0.2484295  0.4888718  0.2426217

 Al 
  0.2554539  0.7549960  0.0016769

 Al 
  0.0018848  0.9953616  0.5025766

 Al 
  0.9864648  0.2637605  0.7340429

 Al 
  0.2393075  0.9959396  0.7624301

 Al 
  0.2437132  0.2616207  0.4976202

 Al 
  0.0047374  0.5059131  0.4961982

 Al 
  0.9926377  0.7530246  0.7634090

 Al 
  0.2466994  0.4902282  0.7456116

 Al 
  0.2471697  0.7429447  0.4867915

 Al 
  0.5092297  0.5000384  0.9808314

 Al 
  0.5080132  0.7367160  0.2481511

 Al 
  0.7418445  0.5128818  0.2503564

 Al 
  0.7569860  0.7518662  0.0163086

 Al 
  0.5035667  0.0057807  0.5098015

 Al 
  0.4884808  0.2467328  0.7511163

 Al 
  0.7713764  0.9931278  0.7516026

 Al 
  0.7591802  0.2482909  0.5031347

 Al 
  0.4967737  0.5006794  0.5119425

 Al 
  0.5087013  0.7462514  0.7498973

 Al 
  0.7428246  0.5117358  0.7302200

 Al 
  0.7436142  0.7608967  0.4998663

