32 
charge = 0 
 Al 
  0.0026979  0.0109017  0.0307670

 Al 
  0.9841332  0.2488911  0.2547980

 Al 
  0.2409905  0.0051049  0.2500644

 Al 
  0.2554168  0.2432714  0.0032709

 Al 
  0.5062732  0.9841431  0.0030036

 Al 
  0.5003329  0.2446525  0.2393879

 Al 
  0.7445968  0.9930994  0.2407641

 Al 
  0.7606059  0.2618657  0.0054094

 Al 
  0.0111467  0.4916229  0.9966128

 Al 
  0.9926526  0.7501126  0.2458257

 Al 
  0.2476845  0.4868695  0.2407183

 Al 
  0.2545084  0.7549007  0.0028353

 Al 
  0.0023464  0.9961326  0.5027226

 Al 
  0.9875501  0.2633508  0.7356344

 Al 
  0.2391602  0.9942008  0.7621194

 Al 
  0.2438605  0.2598733  0.4979667

 Al 
  0.0053104  0.5061507  0.4967118

 Al 
  0.9911118  0.7548884  0.7644325

 Al 
  0.2468665  0.4898854  0.7472180

 Al 
  0.2486882  0.7428333  0.4846109

 Al 
  0.5104710  0.5023303  0.9788637

 Al 
  0.5090416  0.7349760  0.2460299

 Al 
  0.7428060  0.5109376  0.2518316

 Al 
  0.7576370  0.7522944  0.0147616

 Al 
  0.5042040  0.0086741  0.5083436

 Al 
  0.4882221  0.2447812  0.7521076

 Al 
  0.7708307  0.9942540  0.7505272

 Al 
  0.7586444  0.2474766  0.5022165

 Al 
  0.4968987  0.5016460  0.5100589

 Al 
  0.5094005  0.7468702  0.7501052

 Al 
  0.7405351  0.5126157  0.7300295

 Al 
  0.7453752  0.7603930  0.5002525

