32 
charge = 0 
 Al 
  0.9997116  0.0154213  0.0265866

 Al 
  0.9849092  0.2513069  0.2589562

 Al 
  0.2410747  0.0025840  0.2520717

 Al 
  0.2555802  0.2411094  0.0045815

 Al 
  0.5081110  0.9832731  0.0044070

 Al 
  0.4989481  0.2453431  0.2406490

 Al 
  0.7407245  0.9948060  0.2389238

 Al 
  0.7597371  0.2624499  0.0075281

 Al 
  0.0127667  0.4888260  0.9976969

 Al 
  0.9921143  0.7513737  0.2468888

 Al 
  0.2467960  0.4844265  0.2380736

 Al 
  0.2530172  0.7543810  0.0046025

 Al 
  0.0030370  0.9971697  0.5028625

 Al 
  0.9893582  0.2625613  0.7383496

 Al 
  0.2390736  0.9919484  0.7612866

 Al 
  0.2442218  0.2570640  0.4983986

 Al 
  0.0057213  0.5066012  0.4973788

 Al 
  0.9895178  0.7569922  0.7655698

 Al 
  0.2470497  0.4898520  0.7495372

 Al 
  0.2508861  0.7429669  0.4819873

 Al 
  0.5119623  0.5052869  0.9768229

 Al 
  0.5097730  0.7329674  0.2432689

 Al 
  0.7444941  0.5075788  0.2538575

 Al 
  0.7584773  0.7525618  0.0119165

 Al 
  0.5048302  0.0124486  0.5061791

 Al 
  0.4883483  0.2420115  0.7534194

 Al 
  0.7694013  0.9963244  0.7494109

 Al 
  0.7573029  0.2464729  0.5007475

 Al 
  0.4970088  0.5026719  0.5068969

 Al 
  0.5099525  0.7482637  0.7502475

 Al 
  0.7381182  0.5133050  0.7302510

 Al 
  0.7479778  0.7596517  0.5006448

