32 
charge = 0 
 Al 
  0.0042671  0.0082719  0.0325355

 Al 
  0.9838622  0.2477464  0.2525828

 Al 
  0.2412195  0.0064031  0.2491374

 Al 
  0.2552646  0.2445300  0.0024887

 Al 
  0.5052238  0.9848349  0.0021558

 Al 
  0.5011806  0.2443703  0.2388050

 Al 
  0.7467044  0.9923680  0.2420870

 Al 
  0.7608943  0.2614598  0.0040679

 Al 
  0.0101072  0.4932974  0.9960782

 Al 
  0.9931699  0.7493193  0.2453307

 Al 
  0.2482402  0.4883669  0.2421650

 Al 
  0.2552361  0.7549985  0.0019467

 Al 
  0.0019925  0.9955497  0.5026174

 Al 
  0.9867049  0.2636763  0.7343931

 Al 
  0.2392654  0.9955089  0.7623806

 Al 
  0.2437392  0.2612247  0.4977093

 Al 
  0.0049007  0.5059626  0.4963269

 Al 
  0.9922355  0.7535048  0.7636738

 Al 
  0.2467452  0.4901156  0.7459928

 Al 
  0.2475323  0.7428976  0.4862371

 Al 
  0.5095441  0.5006039  0.9803129

 Al 
  0.5083078  0.7362668  0.2476276

 Al 
  0.7420536  0.5124573  0.2507128

 Al 
  0.7571494  0.7519888  0.0159819

 Al 
  0.5037374  0.0064935  0.5094575

 Al 
  0.4883867  0.2462663  0.7513626

 Al 
  0.7712861  0.9933704  0.7513168

 Al 
  0.7590911  0.2480867  0.5029293

 Al 
  0.4968071  0.5009319  0.5115229

 Al 
  0.5088968  0.7463702  0.7499542

 Al 
  0.7422256  0.5119796  0.7301408

 Al 
  0.7440288  0.7607804  0.4999678

