32 
charge = 0 
 Al 
  0.9923680  0.0250879  0.0136466

 Al 
  0.9879845  0.2576481  0.2688555

 Al 
  0.2429273  0.9961759  0.2574477

 Al 
  0.2557027  0.2360514  0.0070281

 Al 
  0.5115539  0.9829885  0.0067398

 Al 
  0.4963678  0.2477254  0.2442639

 Al 
  0.7320826  0.0001671  0.2371145

 Al 
  0.7560059  0.2633224  0.0112618

 Al 
  0.0151540  0.4834501  0.0005916

 Al 
  0.9921539  0.7539206  0.2497339

 Al 
  0.2453653  0.4799800  0.2323177

 Al 
  0.2486832  0.7519541  0.0092075

 Al 
  0.0046421  0.9995087  0.5031211

 Al 
  0.9943493  0.2599636  0.7462341

 Al 
  0.2394857  0.9871145  0.7579501

 Al 
  0.2455930  0.2493033  0.4995607

 Al 
  0.0055257  0.5080479  0.4991547

 Al 
  0.9877073  0.7601158  0.7672256

 Al 
  0.2475533  0.4912442  0.7551804

 Al 
  0.2565034  0.7440832  0.4771150

 Al 
  0.5146218  0.5111900  0.9746436

 Al 
  0.5095181  0.7293030  0.2375316

 Al 
  0.7495792  0.4979085  0.2584377

 Al 
  0.7604141  0.7518823  0.0032907

 Al 
  0.5054502  0.0200894  0.5004703

 Al 
  0.4903681  0.2353906  0.7565900

 Al 
  0.7633855  0.0032659  0.7478714

 Al 
  0.7523415  0.2447812  0.4971647

 Al 
  0.4971190  0.5039057  0.4975979

 Al 
  0.5097235  0.7537572  0.7496077

 Al 
  0.7353534  0.5126999  0.7321964

 Al 
  0.7544156  0.7579749  0.5008477

