32 
charge = 0 
 Al 
  0.9956846  0.0209173  0.0198592

 Al 
  0.9863905  0.2547857  0.2644584

 Al 
  0.2418618  0.9990916  0.2550072

 Al 
  0.2556693  0.2383657  0.0060566

 Al 
  0.5102235  0.9828115  0.0058982

 Al 
  0.4974085  0.2465286  0.2425635

 Al 
  0.7357965  0.9975793  0.2374944

 Al 
  0.7579823  0.2629981  0.0097879

 Al 
  0.0143632  0.4856393  0.9992500

 Al 
  0.9919657  0.7528204  0.2484382

 Al 
  0.2458727  0.4817348  0.2347569

 Al 
  0.2507685  0.7532164  0.0070987

 Al 
  0.0039478  0.9984790  0.5030011

 Al 
  0.9920251  0.2612408  0.7425004

 Al 
  0.2391812  0.9892060  0.7596567

 Al 
  0.2449037  0.2529343  0.4989840

 Al 
  0.0057769  0.5073363  0.4982897

 Al 
  0.9881850  0.7590243  0.7666625

 Al 
  0.2472873  0.4903854  0.7526484

 Al 
  0.2539132  0.7434830  0.4790741

 Al 
  0.5135798  0.5087483  0.9751683

 Al 
  0.5098943  0.7307992  0.2399658

 Al 
  0.7471524  0.5024491  0.2564366

 Al 
  0.7595428  0.7524021  0.0073907

 Al 
  0.5053116  0.0169274  0.5031323

 Al 
  0.4891849  0.2383446  0.7551297

 Al 
  0.7665252  0.9998156  0.7484048

 Al 
  0.7548215  0.2454000  0.4987315

 Al 
  0.4970781  0.5035506  0.5020321

 Al 
  0.5100812  0.7509269  0.7500990

 Al 
  0.7361022  0.5133644  0.7311309

 Al 
  0.7515148  0.7586976  0.5008910

