32 
charge = 0 
 Al 
  0.9950040  0.0217984  0.0186278

 Al 
  0.9866888  0.2553797  0.2653742

 Al 
  0.2420524  0.9984939  0.2555121

 Al 
  0.2556779  0.2378991  0.0062744

 Al 
  0.5105329  0.9828053  0.0061024

 Al 
  0.4971784  0.2467563  0.2429051

 Al 
  0.7350032  0.9980917  0.2373571

 Al 
  0.7576184  0.2630724  0.0101183

 Al 
  0.0145686  0.4851567  0.9995211

 Al 
  0.9919855  0.7530506  0.2487055

 Al 
  0.2457477  0.4813388  0.2342297

 Al 
  0.2503589  0.7529776  0.0075306

 Al 
  0.0040963  0.9986931  0.5030246

 Al 
  0.9924942  0.2609920  0.7432466

 Al 
  0.2392258  0.9887642  0.7593325

 Al 
  0.2450361  0.2522041  0.4990929

 Al 
  0.0057448  0.5074736  0.4984555

 Al 
  0.9880402  0.7592904  0.7668049

 Al 
  0.2473343  0.4905302  0.7531719

 Al 
  0.2544367  0.7435969  0.4786384

 Al 
  0.5138161  0.5092817  0.9749975

 Al 
  0.5098460  0.7304725  0.2394448

 Al 
  0.7476363  0.5015333  0.2568573

 Al 
  0.7597211  0.7523229  0.0065702

 Al 
  0.5053599  0.0176192  0.5025989

 Al 
  0.4893904  0.2377308  0.7554230

 Al 
  0.7659386  0.0004814  0.7482748

 Al 
  0.7543426  0.2452515  0.4983986

 Al 
  0.4970868  0.5036508  0.5011509

 Al 
  0.5100416  0.7514616  0.7500297

 Al 
  0.7358819  0.5132828  0.7313277

 Al 
  0.7521138  0.7585441  0.5009009

