32 
charge = 0 
 Al 
  0.9970521  0.0191080  0.0222551

 Al 
  0.9858349  0.2535926  0.2626058

 Al 
  0.2415276  0.0002871  0.2539961

 Al 
  0.2556482  0.2392926  0.0055901

 Al 
  0.5095589  0.9828857  0.0054440

 Al 
  0.4978961  0.2460943  0.2418915

 Al 
  0.7374276  0.9965880  0.2378607

 Al 
  0.7586518  0.2628335  0.0090825

 Al 
  0.0138929  0.4866566  0.9987129

 Al 
  0.9919608  0.7523489  0.2479048

 Al 
  0.2461524  0.4825813  0.2358472

 Al 
  0.2515643  0.7536607  0.0062410

 Al 
  0.0036446  0.9980422  0.5029565

 Al 
  0.9910982  0.2617172  0.7410388

 Al 
  0.2391144  0.9901082  0.7602668

 Al 
  0.2446513  0.2543735  0.4987773

 Al 
  0.0058091  0.5070727  0.4979704

 Al 
  0.9885451  0.7584241  0.7663408

 Al 
  0.2472006  0.4901403  0.7515940

 Al 
  0.2528724  0.7432763  0.4799973

 Al 
  0.5130736  0.5076333  0.9756052

 Al 
  0.5099364  0.7314848  0.2410413

 Al 
  0.7462093  0.5042486  0.2555777

 Al 
  0.7591840  0.7525160  0.0089946

 Al 
  0.5051866  0.0154794  0.5041867

 Al 
  0.4888260  0.2395822  0.7545468

 Al 
  0.7676155  0.9985459  0.7486981

 Al 
  0.7557349  0.2457292  0.4994097

 Al 
  0.4970608  0.5033080  0.5037523

 Al 
  0.5101072  0.7499282  0.7501980

 Al 
  0.7366467  0.5134486  0.7307745

 Al 
  0.7503131  0.7590132  0.5008428

