32 
charge = 0 
 Al 
  0.9936612  0.0234964  0.0161353

 Al 
  0.9873187  0.2565442  0.2671613

 Al 
  0.2424694  0.9973133  0.2565034

 Al 
  0.2556915  0.2369709  0.0066779

 Al 
  0.5110898  0.9828573  0.0064601

 Al 
  0.4967489  0.2472316  0.2435907

 Al 
  0.7334835  0.9991300  0.2371739

 Al 
  0.7568412  0.2632073  0.0107272

 Al 
  0.0149114  0.4842557  0.0000619

 Al 
  0.9920536  0.7534974  0.2492302

 Al 
  0.2455312  0.4806111  0.2332286

 Al 
  0.2495248  0.7524764  0.0083832

 Al 
  0.0043810  0.9991114  0.5030716

 Al 
  0.9934310  0.2604822  0.7447465

 Al 
  0.2393396  0.9879140  0.7586543

 Al 
  0.2453109  0.2507425  0.4993193

 Al 
  0.0056507  0.5077570  0.4987971

 Al 
  0.9878236  0.7597520  0.7670449

 Al 
  0.2474358  0.4908631  0.7541978

 Al 
  0.2554799  0.7438357  0.4778303

 Al 
  0.5142493  0.5102841  0.9747537

 Al 
  0.5097062  0.7298587  0.2384511

 Al 
  0.7486115  0.4997030  0.2576716

 Al 
  0.7600738  0.7521261  0.0049205

 Al 
  0.5054255  0.0189199  0.5015296

 Al 
  0.4898520  0.2365316  0.7560084

 Al 
  0.7646973  0.0018551  0.7480496

 Al 
  0.7533526  0.2449891  0.4977588

 Al 
  0.4971016  0.5038080  0.4993701

 Al 
  0.5099141  0.7525828  0.7498465

 Al 
  0.7355477  0.5130414  0.7317497

 Al 
  0.7532882  0.7582484  0.5008935

