32 
charge = 0 
 Al 
  0.9911378  0.0265519  0.0112074

 Al 
  0.9886813  0.2586654  0.2704322

 Al 
  0.2434149  0.9951005  0.2583251

 Al 
  0.2557151  0.2351455  0.0073214

 Al 
  0.5119165  0.9831951  0.0069365

 Al 
  0.4960336  0.2482315  0.2449149

 Al 
  0.7308252  0.0011856  0.2371739

 Al 
  0.7551223  0.2634177  0.0117160

 Al 
  0.0152938  0.4827484  0.0011039

 Al 
  0.9922751  0.7543203  0.2502067

 Al 
  0.2452552  0.4794503  0.2315133

 Al 
  0.2478442  0.7514244  0.0099908

 Al 
  0.0048760  0.9998812  0.5031731

 Al 
  0.9952354  0.2594426  0.7476820

 Al 
  0.2396614  0.9863744  0.7572336

 Al 
  0.2458777  0.2479122  0.4998144

 Al 
  0.0053797  0.5083436  0.4995235

 Al 
  0.9876875  0.7603844  0.7673432

 Al 
  0.2476870  0.4916675  0.7561037

 Al 
  0.2574947  0.7443295  0.4765012

 Al 
  0.5149287  0.5119858  0.9746609

 Al 
  0.5092978  0.7288092  0.2366962

 Al 
  0.7505223  0.4961846  0.2591443

 Al 
  0.7607383  0.7516002  0.0017128

 Al 
  0.5054341  0.0211079  0.4994357

 Al 
  0.4909299  0.2343238  0.7571618

 Al 
  0.7620254  0.0046879  0.7477402

 Al 
  0.7513279  0.2446302  0.4966301

 Al 
  0.4971375  0.5039453  0.4958641

 Al 
  0.5094748  0.7549626  0.7493144

 Al 
  0.7352940  0.5122655  0.7326568

 Al 
  0.7554762  0.7577249  0.5007636

