32 
charge = 0 
 Al 
  0.9917442  0.0258366  0.0124189

 Al 
  0.9883298  0.2581692  0.2696599

 Al 
  0.2431687  0.9956302  0.2578956

 Al 
  0.2557089  0.2355960  0.0071816

 Al 
  0.5117482  0.9830825  0.0068487

 Al 
  0.4961945  0.2479778  0.2445931

 Al 
  0.7314341  0.0006794  0.2371294

 Al 
  0.7555703  0.2633719  0.0114994

 Al 
  0.0152369  0.4830862  0.0008502

 Al 
  0.9922120  0.7541236  0.2499752

 Al 
  0.2453035  0.4797015  0.2319019

 Al 
  0.2482625  0.7516893  0.0096060

 Al 
  0.0047621  0.9996980  0.5031471

 Al 
  0.9947973  0.2597025  0.7469643

 Al 
  0.2395698  0.9867370  0.7575924

 Al 
  0.2457354  0.2486003  0.4996857

 Al 
  0.0054552  0.5081951  0.4993379

 Al 
  0.9876850  0.7602619  0.7672925

 Al 
  0.2476177  0.4914509  0.7556507

 Al 
  0.2570046  0.7442070  0.4767945

 Al 
  0.5147827  0.5116021  0.9746362

 Al 
  0.5094117  0.7290481  0.2371021

 Al 
  0.7500557  0.4970360  0.2587991

 Al 
  0.7605787  0.7517450  0.0024937

 Al 
  0.5054478  0.0206178  0.4999493

 Al 
  0.4906440  0.2348473  0.7568771

 Al 
  0.7627110  0.0039763  0.7477996

 Al 
  0.7518341  0.2446983  0.4968900

 Al 
  0.4971276  0.5039330  0.4967242

 Al 
  0.5096060  0.7543575  0.7494678

 Al 
  0.7353077  0.5124944  0.7324254

 Al 
  0.7549552  0.7578461  0.5008094

