32 
charge = 0 
 Al 
  0.9883904  0.0296161  0.0054750

 Al 
  0.9905314  0.2607297  0.2737959

 Al 
  0.2447168  0.9927528  0.2601641

 Al 
  0.2557510  0.2329464  0.0077991

 Al 
  0.5123496  0.9840045  0.0070492

 Al 
  0.4953827  0.2495260  0.2463950

 Al 
  0.7283847  0.0035617  0.2378150

 Al 
  0.7527387  0.2635761  0.0124870

 Al 
  0.0151738  0.4814489  0.0022784

 Al 
  0.9926278  0.7552139  0.2512252

 Al 
  0.2452354  0.4785741  0.2300245

 Al 
  0.2457985  0.7501151  0.0117123

 Al 
  0.0053129  0.0006918  0.5033043

 Al 
  0.9972774  0.2581617  0.7510445

 Al 
  0.2402208  0.9847978  0.7554490

 Al 
  0.2465868  0.2447342  0.5005148

 Al 
  0.0049762  0.5091060  0.5005099

 Al 
  0.9880340  0.7606814  0.7673704

 Al 
  0.2481177  0.4928543  0.7581097

 Al 
  0.2597965  0.7448951  0.4754282

 Al 
  0.5154015  0.5134820  0.9752067

 Al 
  0.5086778  0.7278563  0.2349921

 Al 
  0.7527065  0.4923222  0.2606307

 Al 
  0.7614635  0.7507809  0.9980966

 Al 
  0.5052200  0.0229518  0.4969890

 Al 
  0.4924781  0.2320516  0.7585565

 Al 
  0.7585082  0.0082038  0.7476090

 Al 
  0.7488639  0.2444966  0.4955893

 Al 
  0.4971969  0.5038018  0.4918086

 Al 
  0.5086332  0.7580194  0.7483540

 Al 
  0.7356628  0.5108188  0.7338213

 Al 
  0.7577830  0.7572261  0.5003960

