32 
charge = 0 
 Al 
  0.9894337  0.0284924  0.0076989

 Al 
  0.9897728  0.2599921  0.2725509

 Al 
  0.2441847  0.9936303  0.2594933

 Al 
  0.2557349  0.2338176  0.0076506

 Al 
  0.5122568  0.9836345  0.0070690

 Al 
  0.4956141  0.2490038  0.2458294

 Al 
  0.7292374  0.0026447  0.2374783

 Al 
  0.7537214  0.2635253  0.0122407

 Al 
  0.0153012  0.4818932  0.0018266

 Al 
  0.9924818  0.7548735  0.2508465

 Al 
  0.2451983  0.4788501  0.2305294

 Al 
  0.2466078  0.7506324  0.0110675

 Al 
  0.0051656  0.0003874  0.5032511

 Al 
  0.9964903  0.2586691  0.7497475

 Al 
  0.2399770  0.9853819  0.7561581

 Al 
  0.2463034  0.2459495  0.5002228

 Al 
  0.0051384  0.5087978  0.5001040

 Al 
  0.9878298  0.7606220  0.7674051

 Al 
  0.2479283  0.4923605  0.7573610

 Al 
  0.2589067  0.7446810  0.4757784

 Al 
  0.5152629  0.5129672  0.9749072

 Al 
  0.5089315  0.7281892  0.2356084

 Al 
  0.7518650  0.4937837  0.2600849

 Al 
  0.7611888  0.7511249  0.9994815

 Al 
  0.5053351  0.0223355  0.4979432

 Al 
  0.4918383  0.2328907  0.7580033

 Al 
  0.7599302  0.0068078  0.7476288

 Al 
  0.7498329  0.2445102  0.4959544

 Al 
  0.4971709  0.5038996  0.4933778

 Al 
  0.5090045  0.7567942  0.7487761

 Al 
  0.7354327  0.5114549  0.7333548

 Al 
  0.7569217  0.7574043  0.5005693

