32 
charge = 0 
 Al 
  0.9856245  0.0322175  0.9993144

 Al 
  0.9930214  0.2622098  0.2768044

 Al 
  0.2464074  0.9905945  0.2616504

 Al 
  0.2558190  0.2303364  0.0079254

 Al 
  0.5119957  0.9854586  0.0064811

 Al 
  0.4948406  0.2511608  0.2478924

 Al 
  0.7267932  0.0060480  0.2394325

 Al 
  0.7495161  0.2636392  0.0127395

 Al 
  0.0141429  0.4806532  0.0035172

 Al 
  0.9930622  0.7561507  0.2521410

 Al 
  0.2457007  0.4782882  0.2292238

 Al 
  0.2434112  0.7486350  0.0133186

 Al 
  0.0055208  0.0014640  0.5034689

 Al 
  0.9994641  0.2566853  0.7545604

 Al 
  0.2411230  0.9833684  0.7533439

 Al 
  0.2474543  0.2415264  0.5015333

 Al 
  0.0045518  0.5100824  0.5018687

 Al 
  0.9891453  0.7604624  0.7669039

 Al 
  0.2488652  0.4944718  0.7599686

 Al 
  0.2622816  0.7453950  0.4749827

 Al 
  0.5154250  0.5144226  0.9766633

 Al 
  0.5079414  0.7272251  0.2335986

 Al 
  0.7549960  0.4886169  0.2619128

 Al 
  0.7621578  0.7496436  0.9944050

 Al 
  0.5046421  0.0238565  0.4942874

 Al 
  0.4945250  0.2300715  0.7602235

 Al 
  0.7541198  0.0123150  0.7477749

 Al 
  0.7460782  0.2447552  0.4949000

 Al 
  0.4972873  0.5032078  0.4874920

 Al 
  0.5072620  0.7617098  0.7467687

 Al 
  0.7369252  0.5084587  0.7352371

 Al 
  0.7598993  0.7568722  0.4996659

