32 
charge = 0 
 Al 
  0.9843832  0.0331122  0.9964482

 Al 
  0.9944421  0.2625303  0.2779602

 Al 
  0.2473244  0.9897542  0.2620984

 Al 
  0.2558623  0.2289738  0.0078214

 Al 
  0.5114623  0.9863794  0.0059193

 Al 
  0.4946166  0.2520482  0.2485446

 Al 
  0.7265247  0.0071593  0.2405797

 Al 
  0.7476907  0.2636219  0.0126009

 Al 
  0.0132394  0.4805257  0.0040988

 Al 
  0.9932689  0.7566024  0.2524826

 Al 
  0.2461438  0.4784280  0.2292201

 Al 
  0.2421947  0.7479283  0.0139510

 Al 
  0.0054737  0.0017870  0.5035580

 Al 
  0.0005223  0.2559737  0.7561371

 Al 
  0.2416861  0.9828103  0.7522784

 Al 
  0.2479209  0.2401403  0.5021645

 Al 
  0.0044045  0.5106146  0.5026682

 Al 
  0.9899943  0.7601517  0.7664484

 Al 
  0.2493651  0.4953678  0.7607136

 Al 
  0.2634672  0.7455497  0.4751052

 Al 
  0.5152158  0.5145896  0.9776929

 Al 
  0.5076147  0.7271162  0.2331196

 Al 
  0.7560504  0.4871145  0.2623781

 Al 
  0.7624301  0.7490174  0.9927726

 Al 
  0.5042164  0.0237798  0.4929880

 Al 
  0.4956104  0.2293711  0.7610910

 Al 
  0.7518056  0.0143768  0.7479617

 Al 
  0.7447218  0.2450485  0.4947824

 Al 
  0.4973417  0.5027375  0.4854945

 Al 
  0.5064279  0.7635921  0.7457675

 Al 
  0.7378607  0.5070021  0.7359821

 Al 
  0.7607185  0.7567967  0.4991733

