32 
charge = 0 
 Al 
  0.9860539  0.0318598  0.0002958

 Al 
  0.9925783  0.2620390  0.2763725

 Al 
  0.2461141  0.9909076  0.2614574

 Al 
  0.2558054  0.2307782  0.0079365

 Al 
  0.5121194  0.9851814  0.0066271

 Al 
  0.4949198  0.2508774  0.2476610

 Al 
  0.7269603  0.0056594  0.2391008

 Al 
  0.7500879  0.2636379  0.0127457

 Al 
  0.0143842  0.4807336  0.0033204

 Al 
  0.9929904  0.7559997  0.2520098

 Al 
  0.2455844  0.4782833  0.2292832

 Al 
  0.2438097  0.7488751  0.0130835

 Al 
  0.0055121  0.0013477  0.5034404

 Al 
  0.9991114  0.2569266  0.7540109

 Al 
  0.2409534  0.9835763  0.7536954

 Al 
  0.2473046  0.2420190  0.5013440

 Al 
  0.0046124  0.5099129  0.5016224

 Al 
  0.9889077  0.7605366  0.7670202

 Al 
  0.2487191  0.4941872  0.7596951

 Al 
  0.2618818  0.7453282  0.4749950

 Al 
  0.5154621  0.5143248  0.9763650

 Al 
  0.5080578  0.7272920  0.2337879

 Al 
  0.7546347  0.4891676  0.2617333

 Al 
  0.7620563  0.7498428  0.9949780

 Al 
  0.5047634  0.0238020  0.4947255

 Al 
  0.4941723  0.2303475  0.7599413

 Al 
  0.7548686  0.0116331  0.7477266

 Al 
  0.7465323  0.2446822  0.4949730

 Al 
  0.4972712  0.5033377  0.4881776

 Al 
  0.5075182  0.7610898  0.7470695

 Al 
  0.7366578  0.5089005  0.7349970

 Al 
  0.7595923  0.7569130  0.4998094

