32 
charge = 0 
 Al 
  0.9831877  0.0337335  0.9936699

 Al 
  0.9960361  0.2625575  0.2789206

 Al 
  0.2483120  0.9890575  0.2623422

 Al 
  0.2559094  0.2275296  0.0076048

 Al 
  0.5106802  0.9874412  0.0051730

 Al 
  0.4943988  0.2530085  0.2491461

 Al 
  0.7266113  0.0082026  0.2419633

 Al 
  0.7456623  0.2635649  0.0122853

 Al 
  0.0120440  0.4805666  0.0046792

 Al 
  0.9934669  0.7570677  0.2527511

 Al 
  0.2467427  0.4787535  0.2294924

 Al 
  0.2409274  0.7472340  0.0144807

 Al 
  0.0053091  0.0020779  0.5036570

 Al 
  0.0016076  0.2552807  0.7576073

 Al 
  0.2423420  0.9823425  0.7511744

 Al 
  0.2484332  0.2388780  0.5029145

 Al 
  0.0043228  0.5111913  0.5035865

 Al 
  0.9910673  0.7597099  0.7658198

 Al 
  0.2499765  0.4963405  0.7613546

 Al 
  0.2646515  0.7456289  0.4754740

 Al 
  0.5148458  0.5145735  0.9789305

 Al 
  0.5073276  0.7271620  0.2327620

 Al 
  0.7570801  0.4858274  0.2627370

 Al 
  0.7626429  0.7483479  0.9912405

 Al 
  0.5036879  0.0233293  0.4916922

 Al 
  0.4967328  0.2288661  0.7619969

 Al 
  0.7493602  0.0164819  0.7482043

 Al 
  0.7433580  0.2454594  0.4948233

 Al 
  0.4973999  0.5021410  0.4835615

 Al 
  0.5054812  0.7655314  0.7445943

 Al 
  0.7390067  0.5053252  0.7367779

 Al 
  0.7613856  0.7567893  0.4985855

