32 
charge = 0 
 Al 
  0.9792189  0.0334030  0.9849352

 Al 
  0.0030308  0.2601356  0.2807918

 Al 
  0.2522920  0.9877679  0.2614759

 Al 
  0.2559861  0.2219061  0.0060121

 Al 
  0.5061012  0.9920350  0.0014752

 Al 
  0.4935746  0.2567992  0.2507549

 Al 
  0.7297597  0.0112581  0.2482637

 Al 
  0.7370143  0.2628781  0.0099129

 Al 
  0.0055579  0.4820133  0.0068004

 Al 
  0.9941018  0.7588733  0.2530803

 Al 
  0.2499641  0.4813462  0.2326828

 Al 
  0.2360923  0.7449879  0.0154299

 Al 
  0.0036991  0.0028860  0.5040840

 Al 
  0.0058871  0.2532647  0.7615749

 Al 
  0.2453356  0.9815541  0.7470274

 Al 
  0.2506510  0.2356257  0.5066729

 Al 
  0.0047993  0.5134882  0.5078164

 Al 
  0.9966029  0.7571407  0.7621256

 Al 
  0.2530989  0.5003094  0.7627865

 Al 
  0.2687416  0.7451921  0.4788105

 Al 
  0.5121974  0.5132234  0.9846344

 Al 
  0.5068177  0.7288278  0.2323771

 Al 
  0.7606195  0.4831778  0.2631219

 Al 
  0.7627407  0.7458269  0.9866603

 Al 
  0.5010383  0.0186946  0.4872642

 Al 
  0.5004022  0.2290741  0.7652591

 Al 
  0.7400846  0.0239208  0.7493057

 Al 
  0.7386119  0.2478343  0.4962836

 Al 
  0.4976449  0.4991077  0.4775321

 Al 
  0.5014888  0.7723739  0.7391639

 Al 
  0.7444879  0.4978256  0.7400252

 Al 
  0.7623546  0.7572509  0.4958579

