32 
charge = 0 
 Al 
  0.9820071  0.0340577  0.9909497

 Al 
  0.9978454  0.2622605  0.2796978

 Al 
  0.2493924  0.9884993  0.2623694

 Al 
  0.2559552  0.2259740  0.0072719

 Al 
  0.5096295  0.9886540  0.0042448

 Al 
  0.4941736  0.2540580  0.2496980

 Al 
  0.7270729  0.0091877  0.2435919

 Al 
  0.7433852  0.2634548  0.0117865

 Al 
  0.0105168  0.4807819  0.0052770

 Al 
  0.9936600  0.7575627  0.2529466

 Al 
  0.2475125  0.4792770  0.2300629

 Al 
  0.2395810  0.7465472  0.0149052

 Al 
  0.0050097  0.0023427  0.5037684

 Al 
  0.0027635  0.2546124  0.7589699

 Al 
  0.2431068  0.9819687  0.7500111

 Al 
  0.2490062  0.2377358  0.5038179

 Al 
  0.0043278  0.5118200  0.5046545

 Al 
  0.9923939  0.7591245  0.7649881

 Al 
  0.2507240  0.4974073  0.7619016

 Al 
  0.2658569  0.7456215  0.4761163

 Al 
  0.5142951  0.5143755  0.9803896

 Al 
  0.5070925  0.7273885  0.2325170

 Al 
  0.7581122  0.4847520  0.2629882

 Al 
  0.7627865  0.7476338  0.9897864

 Al 
  0.5030407  0.0224717  0.4903817

 Al 
  0.4978776  0.2285840  0.7629499

 Al 
  0.7467514  0.0186563  0.7484964

 Al 
  0.7419670  0.2460027  0.4950361

 Al 
  0.4974642  0.5014034  0.4816705

 Al 
  0.5044131  0.7675400  0.7432206

 Al 
  0.7403817  0.5033934  0.7376454

 Al 
  0.7618967  0.7568524  0.4978912

