32 
charge = 0 
 Al 
  0.9765680  0.0304527  0.9802819

 Al 
  0.0090156  0.2561284  0.2807596

 Al 
  0.2553351  0.9878991  0.2593015

 Al 
  0.2557460  0.2178679  0.0042560

 Al 
  0.5015556  0.9955869  0.9985162

 Al 
  0.4929013  0.2593696  0.2512871

 Al 
  0.7345020  0.0128583  0.2533130

 Al 
  0.7299750  0.2617160  0.0074353

 Al 
  0.9992240  0.4841580  0.0084414

 Al 
  0.9945473  0.7602780  0.2527511

 Al 
  0.2528588  0.4844513  0.2368546

 Al 
  0.2325021  0.7436860  0.0151663

 Al 
  0.0016163  0.0032993  0.5044688

 Al 
  0.0094191  0.2525667  0.7628162

 Al 
  0.2478367  0.9820108  0.7439916

 Al 
  0.2526298  0.2346641  0.5104030

 Al 
  0.0060146  0.5151354  0.5115588

 Al 
  0.0019467  0.7544503  0.7581716

 Al 
  0.2561977  0.5034615  0.7630055

 Al 
  0.2712811  0.7441896  0.4828944

 Al 
  0.5090676  0.5113212  0.9894188

 Al 
  0.5070430  0.7316878  0.2328226

 Al 
  0.7631528  0.4831890  0.2625922

 Al 
  0.7620217  0.7441166  0.9841320

 Al 
  0.4986053  0.0128125  0.4844129

 Al 
  0.5018539  0.2316977  0.7670957

 Al 
  0.7337372  0.0285506  0.7500470

 Al 
  0.7355453  0.2502735  0.4984914

 Al 
  0.4979073  0.4963616  0.4745829

 Al 
  0.4985372  0.7764715  0.7344414

 Al 
  0.7492835  0.4914608  0.7427009

 Al 
  0.7615712  0.7578239  0.4935857

