32 
charge = 0 
 Al 
  0.9759084  0.0292424  0.9793872

 Al 
  0.0106591  0.2547894  0.2805430

 Al 
  0.2561049  0.9880798  0.2585305

 Al 
  0.2555975  0.2169162  0.0037374

 Al 
  0.5002512  0.9964531  0.9977959

 Al 
  0.4927169  0.2599265  0.2513106

 Al 
  0.7360712  0.0131924  0.2545926

 Al 
  0.7281310  0.2612903  0.0067509

 Al 
  0.9974073  0.4848473  0.0088906

 Al 
  0.9946698  0.7606529  0.2525927

 Al 
  0.2536174  0.4854265  0.2381751

 Al 
  0.2315950  0.7434125  0.0149473

 Al 
  0.0009517  0.0033798  0.5045876

 Al 
  0.0103955  0.2525407  0.7628508

 Al 
  0.2484877  0.9823165  0.7432243

 Al 
  0.2532003  0.2346517  0.5115106

 Al 
  0.0064675  0.5155091  0.5125835

 Al 
  0.0034837  0.7536471  0.7569700

 Al 
  0.2571209  0.5042857  0.7629375

 Al 
  0.2718244  0.7438382  0.4841542

 Al 
  0.5080763  0.5107222  0.9906960

 Al 
  0.5071989  0.7327063  0.2330380

 Al 
  0.7638174  0.4834785  0.2623385

 Al 
  0.7616962  0.7437231  0.9835701

 Al 
  0.4979345  0.0109735  0.4837397

 Al 
  0.5019120  0.2328511  0.7674014

 Al 
  0.7322818  0.0295233  0.7501893

 Al 
  0.7348411  0.2509938  0.4992154

 Al 
  0.4980050  0.4956215  0.4741275

 Al 
  0.4978565  0.7772957  0.7331704

 Al 
  0.7505916  0.4897394  0.7434335

 Al 
  0.7611306  0.7579736  0.4930041

