32 
charge = 0 
 Al 
  0.9753082  0.0279145  0.9787065

 Al 
  0.0122160  0.2534280  0.2802473

 Al 
  0.2567992  0.9883075  0.2577311

 Al 
  0.2554044  0.2161032  0.0032362

 Al 
  0.4990000  0.9972031  0.9971672

 Al 
  0.4925412  0.2603732  0.2512772

 Al 
  0.7376689  0.0134696  0.2557460

 Al 
  0.7264405  0.2608386  0.0061197

 Al 
  0.9956648  0.4855329  0.0093201

 Al 
  0.9947911  0.7610044  0.2524182

 Al 
  0.2543018  0.4864004  0.2394956

 Al 
  0.2307782  0.7431934  0.0146738

 Al 
  0.0002834  0.0034404  0.5047114

 Al 
  0.0113249  0.2525927  0.7627506

 Al 
  0.2490793  0.9826939  0.7425301

 Al 
  0.2537548  0.2347508  0.5125934

 Al 
  0.0069477  0.5158160  0.5135389

 Al 
  0.0049602  0.7528637  0.7557807

 Al 
  0.2580281  0.5050418  0.7628174

 Al 
  0.2722613  0.7434743  0.4853943

 Al 
  0.5070789  0.5101257  0.9918865

 Al 
  0.5073882  0.7337830  0.2332793

 Al 
  0.7644349  0.4838708  0.2620551

 Al 
  0.7613225  0.7433902  0.9830850

 Al 
  0.4973083  0.0091443  0.4831444

 Al 
  0.5017883  0.2341567  0.7675833

 Al 
  0.7310480  0.0302918  0.7502896

 Al 
  0.7342384  0.2516955  0.4999493

 Al 
  0.4981127  0.4949371  0.4738701

 Al 
  0.4972897  0.7779268  0.7319922

 Al 
  0.7518217  0.4881268  0.7441302

 Al 
  0.7606121  0.7581060  0.4924818

