32 
charge = 0 
 Al 
  0.9756002  0.0285914  0.9790196

 Al 
  0.0114499  0.2541099  0.2804044

 Al 
  0.2564613  0.9881875  0.2581333

 Al 
  0.2555072  0.2164918  0.0034837

 Al 
  0.4996176  0.9968430  0.9974704

 Al 
  0.4926278  0.2601641  0.2513007

 Al 
  0.7368682  0.0133384  0.2551866

 Al 
  0.7272647  0.2610675  0.0064279

 Al 
  0.9965249  0.4851926  0.0091085

 Al 
  0.9947305  0.7608324  0.2525073

 Al 
  0.2539701  0.4859141  0.2388372

 Al 
  0.2311742  0.7432961  0.0148161

 Al 
  0.0006163  0.0034132  0.5046483

 Al 
  0.0108670  0.2525568  0.7628162

 Al 
  0.2487909  0.9824972  0.7428679

 Al 
  0.2534800  0.2346876  0.5120563

 Al 
  0.0067051  0.5156713  0.5130699

 Al 
  0.0042312  0.7532523  0.7563722

 Al 
  0.2575776  0.5046730  0.7628830

 Al 
  0.2720571  0.7436575  0.4847780

 Al 
  0.5075776  0.5104228  0.9913024

 Al 
  0.5072892  0.7332385  0.2331555

 Al 
  0.7641317  0.4836629  0.2622011

 Al 
  0.7615143  0.7435486  0.9833189

 Al 
  0.4976152  0.0100552  0.4834315

 Al 
  0.5018724  0.2334860  0.7675078

 Al 
  0.7316358  0.0299342  0.7502450

 Al 
  0.7345268  0.2513477  0.4995829

 Al 
  0.4980570  0.4952713  0.4739741

 Al 
  0.4975583  0.7776360  0.7325677

 Al 
  0.7512178  0.4889176  0.7437874

 Al 
  0.7608806  0.7580429  0.4927343

