32 
charge = 0 
 Al 
  0.9772821  0.0315195  0.9813883

 Al 
  0.0073103  0.2574118  0.2808871

 Al 
  0.2545035  0.9877778  0.2600230

 Al 
  0.2558549  0.2189372  0.0047795

 Al 
  0.5028860  0.9946290  0.9993119

 Al 
  0.4930932  0.2587149  0.2512041

 Al 
  0.7329959  0.0124647  0.2519294

 Al 
  0.7319365  0.2621058  0.0081506

 Al 
  0.0010779  0.4834847  0.0079761

 Al 
  0.9944211  0.7598844  0.2528860

 Al 
  0.2520469  0.4834971  0.2355638

 Al 
  0.2334823  0.7440102  0.0153260

 Al 
  0.0022635  0.0031991  0.5043537

 Al 
  0.0084117  0.2526731  0.7626380

 Al 
  0.2471412  0.9817806  0.7448183

 Al 
  0.2520519  0.2347953  0.5092929

 Al 
  0.0056000  0.5147047  0.5104908

 Al 
  0.0003812  0.7552559  0.7593646

 Al 
  0.2552757  0.5025840  0.7630167

 Al 
  0.2706413  0.7445213  0.4816469

 Al 
  0.5100329  0.5119091  0.9880761

 Al 
  0.5069254  0.7307435  0.2326419

 Al 
  0.7624511  0.4830182  0.2628051

 Al 
  0.7622964  0.7445634  0.9847693

 Al 
  0.4993033  0.0146218  0.4851604

 Al 
  0.5016224  0.2307151  0.7666774

 Al 
  0.7353906  0.0273922  0.7498663

 Al 
  0.7363398  0.2495495  0.4977922

 Al 
  0.4978219  0.4971412  0.4752289

 Al 
  0.4993144  0.7754690  0.7357792

 Al 
  0.7479197  0.4932627  0.7419410

 Al 
  0.7619227  0.7576617  0.4942144

