32 
charge = 0 
 Al 
  0.9747711  0.0264925  0.9782325

 Al 
  0.0136738  0.2520729  0.2798760

 Al 
  0.2574105  0.9885761  0.2569180

 Al 
  0.2551643  0.2154435  0.0027585

 Al 
  0.4978169  0.9978244  0.9966351

 Al 
  0.4923754  0.2607024  0.2511868

 Al 
  0.7392691  0.0136912  0.2567608

 Al 
  0.7249257  0.2603646  0.0055529

 Al 
  0.9940213  0.4861999  0.0097272

 Al 
  0.9949087  0.7613274  0.2522338

 Al 
  0.2549020  0.4873620  0.2407950

 Al 
  0.2300616  0.7430276  0.0143532

 Al 
  0.9996225  0.0034825  0.5048426

 Al 
  0.0121987  0.2527164  0.7625278

 Al 
  0.2496052  0.9831370  0.7419138

 Al 
  0.2542894  0.2349537  0.5136379

 Al 
  0.0074489  0.5160475  0.5144127

 Al 
  0.0063574  0.7521100  0.7546173

 Al 
  0.2589129  0.5057213  0.7626491

 Al 
  0.2725855  0.7431068  0.4865947

 Al 
  0.5060839  0.5095404  0.9929818

 Al 
  0.5076085  0.7349042  0.2335429

 Al 
  0.7650042  0.4843510  0.2617494

 Al 
  0.7609042  0.7431241  0.9826692

 Al 
  0.4967341  0.0073573  0.4826259

 Al 
  0.5014863  0.2355997  0.7676390

 Al 
  0.7300431  0.0308500  0.7503428

 Al 
  0.7337409  0.2523675  0.5006745

 Al 
  0.4982328  0.4943221  0.4738082

 Al 
  0.4968504  0.7783649  0.7309267

 Al 
  0.7529602  0.4866430  0.7447824

 Al 
  0.7600292  0.7582174  0.4920289

