32 
charge = 0 
 Al 
  0.9740805  0.0242191  0.9778749

 Al 
  0.0156713  0.2500817  0.2791966

 Al 
  0.2581741  0.9890389  0.2556953

 Al 
  0.2547089  0.2147493  0.0020977

 Al 
  0.4961858  0.9985038  0.9960138

 Al 
  0.4921501  0.2609784  0.2509554

 Al 
  0.7416415  0.0139300  0.2580219

 Al 
  0.7229939  0.2596220  0.0048389

 Al 
  0.9917665  0.4871454  0.0102903

 Al 
  0.9950832  0.7617581  0.2519492

 Al 
  0.2556321  0.4887704  0.2426835

 Al 
  0.2291792  0.7428766  0.0137976

 Al 
  0.9986597  0.0035097  0.5050579

 Al 
  0.0133991  0.2530184  0.7619994

 Al 
  0.2502698  0.9839154  0.7411353

 Al 
  0.2550542  0.2354376  0.5151156

 Al 
  0.0082236  0.5162492  0.5155524

 Al 
  0.0082855  0.7510507  0.7529367

 Al 
  0.2601889  0.5065900  0.7623199

 Al 
  0.2728615  0.7425610  0.4882951

 Al 
  0.5046074  0.5086926  0.9944520

 Al 
  0.5079835  0.7366529  0.2339686

 Al 
  0.7657604  0.4852049  0.2612631

 Al 
  0.7601950  0.7428481  0.9821581

 Al 
  0.4959816  0.0047844  0.4819848

 Al 
  0.5007141  0.2379907  0.7674868

 Al 
  0.7289503  0.0313029  0.7503366

 Al 
  0.7331828  0.2533092  0.5017326

 Al 
  0.4984394  0.4935362  0.4740681

 Al 
  0.4964346  0.7786694  0.7295567

 Al 
  0.7544911  0.4846666  0.7456834

 Al 
  0.7590528  0.7583387  0.4914843

