32 
charge = 0 
 Al 
  0.9732068  0.0201079  0.9780753

 Al 
  0.0185684  0.2469148  0.2777523

 Al 
  0.2590590  0.9899423  0.2536830

 Al 
  0.2536545  0.2143632  0.0011447

 Al 
  0.4938295  0.9989728  0.9953851

 Al 
  0.4918234  0.2608831  0.2503527

 Al 
  0.7454977  0.0141293  0.2594896

 Al 
  0.7206326  0.2582941  0.0040159

 Al 
  0.9885587  0.4885488  0.0111145

 Al 
  0.9953814  0.7623360  0.2514776

 Al 
  0.2563982  0.4910388  0.2456760

 Al 
  0.2282016  0.7428580  0.0126912

 Al 
  0.9971388  0.0034664  0.5054935

 Al 
  0.0151267  0.2537671  0.7606987

 Al 
  0.2510668  0.9854945  0.7401960

 Al 
  0.2562447  0.2366640  0.5173184

 Al 
  0.0095540  0.5161898  0.5169868

 Al 
  0.0110638  0.7494777  0.7502983

 Al 
  0.2621987  0.5076729  0.7615848

 Al 
  0.2727773  0.7416749  0.4908334

 Al 
  0.5021657  0.5073610  0.9965200

 Al 
  0.5087112  0.7397381  0.2347483

 Al 
  0.7667826  0.4869202  0.2604215

 Al 
  0.7587830  0.7427095  0.9815269

 Al 
  0.4950188  0.0008230  0.4812101

 Al 
  0.4986622  0.2425214  0.7666254

 Al 
  0.7281088  0.0311235  0.7501015

 Al 
  0.7327199  0.2546965  0.5033748

 Al 
  0.4988664  0.4925944  0.4753799

 Al 
  0.4963826  0.7783031  0.7278909

 Al 
  0.7566234  0.4820071  0.7470039

 Al 
  0.7571940  0.7584030  0.4909299

