32 
charge = 0 
 Al 
  0.9750322  0.0272140  0.9784441

 Al 
  0.0129573  0.2527486  0.2800703

 Al 
  0.2571147  0.9884375  0.2573251

 Al 
  0.2552906  0.2157542  0.0029937

 Al 
  0.4983998  0.9975298  0.9968888

 Al 
  0.4924571  0.2605527  0.2512388

 Al 
  0.7384696  0.0135872  0.2562707

 Al 
  0.7256609  0.2606034  0.0058277

 Al 
  0.9948295  0.4858695  0.0095268

 Al 
  0.9948505  0.7611690  0.2523266

 Al 
  0.2546136  0.4868831  0.2401490

 Al 
  0.2304069  0.7431043  0.0145191

 Al 
  0.9999517  0.0034639  0.5047758

 Al 
  0.0117692  0.2526459  0.7626528

 Al 
  0.2493515  0.9829080  0.7422120

 Al 
  0.2540246  0.2348399  0.5131219

 Al 
  0.0071964  0.5159410  0.5139869

 Al 
  0.0056693  0.7524826  0.7551953

 Al 
  0.2584748  0.5053921  0.7627382

 Al 
  0.2724370  0.7432912  0.4860007

 Al 
  0.5065801  0.5098312  0.9924459

 Al 
  0.5074947  0.7343386  0.2334080

 Al 
  0.7647258  0.4841010  0.2619041

 Al 
  0.7611183  0.7432491  0.9828684

 Al 
  0.4970138  0.0082446  0.4828758

 Al 
  0.5016596  0.2348621  0.7676278

 Al 
  0.7305171  0.0305975  0.7503218

 Al 
  0.7339760  0.2520358  0.5003131

 Al 
  0.4981709  0.4946203  0.4738144

 Al 
  0.4970534  0.7781706  0.7314452

 Al 
  0.7524021  0.4873682  0.7444619

 Al 
  0.7603287  0.7581654  0.4922467

