32 
charge = 0 
 Al 
  0.9736919  0.0226214  0.9778452

 Al 
  0.0168878  0.2487921  0.2786644

 Al 
  0.2585837  0.9893817  0.2548859

 Al 
  0.2543339  0.2144795  0.0016955

 Al 
  0.4951921  0.9987884  0.9957069

 Al 
  0.4920128  0.2610205  0.2507438

 Al 
  0.7431971  0.0140364  0.2586988

 Al 
  0.7219259  0.2591060  0.0044565

 Al 
  0.9904039  0.4877320  0.0106356

 Al 
  0.9952007  0.7620093  0.2517586

 Al 
  0.2560047  0.4896862  0.2439013

 Al 
  0.2287164  0.7428358  0.0133818

 Al 
  0.9980385  0.0035048  0.5052188

 Al 
  0.0141293  0.2532857  0.7615353

 Al 
  0.2506324  0.9845057  0.7407084

 Al 
  0.2555406  0.2358670  0.5160351

 Al 
  0.0087508  0.5162863  0.5161947

 Al 
  0.0094587  0.7503935  0.7518601

 Al 
  0.2610081  0.5070751  0.7620526

 Al 
  0.2729085  0.7422021  0.4893532

 Al 
  0.5036310  0.5081481  0.9953294

 Al 
  0.5082607  0.7378595  0.2342706

 Al 
  0.7662034  0.4858497  0.2609277

 Al 
  0.7596666  0.7427454  0.9818784

 Al 
  0.4955534  0.0031521  0.4816358

 Al 
  0.5000025  0.2397233  0.7672318

 Al 
  0.7284776  0.0313635  0.7502760

 Al 
  0.7329315  0.2538921  0.5024083

 Al 
  0.4985966  0.4931055  0.4744654

 Al 
  0.4963195  0.7786496  0.7287993

 Al 
  0.7554020  0.4835120  0.7462341

 Al 
  0.7583412  0.7583870  0.4912108

