32 
charge = 0 
 Al 
  0.9724259  0.0126058  0.9800307

 Al 
  0.0224890  0.2421613  0.2745867

 Al 
  0.2595948  0.9916885  0.2505074

 Al 
  0.2510259  0.2157368  0.9999381

 Al 
  0.4908061  0.9981090  0.9951166

 Al 
  0.4913791  0.2594030  0.2489679

 Al 
  0.7516064  0.0140971  0.2604822

 Al 
  0.7187726  0.2557868  0.0035407

 Al 
  0.9846716  0.4903940  0.0121764

 Al 
  0.9959321  0.7629276  0.2507821

 Al 
  0.2565306  0.4946772  0.2503007

 Al 
  0.2278414  0.7433543  0.0104042

 Al 
  0.9948777  0.0031966  0.5065170

 Al 
  0.0173073  0.2553822  0.7577830

 Al 
  0.2517091  0.9887493  0.7394943

 Al 
  0.2580664  0.2396552  0.5201624

 Al 
  0.0117816  0.5149968  0.5180771

 Al 
  0.0145847  0.7473887  0.7463133

 Al 
  0.2652616  0.5086605  0.7599339

 Al 
  0.2712366  0.7403284  0.4942515

 Al 
  0.4980793  0.5054020  0.9992723

 Al 
  0.5100898  0.7452614  0.2361702

 Al 
  0.7678580  0.4903557  0.2591196

 Al 
  0.7557497  0.7432850  0.9808165

 Al 
  0.4941785  0.9952205  0.4805208

 Al 
  0.4937058  0.2511386  0.7637159

 Al 
  0.7287585  0.0287684  0.7491572

 Al 
  0.7330602  0.2564588  0.5056557

 Al 
  0.4998651  0.4919744  0.4796297

 Al 
  0.4978714  0.7755891  0.7268056

 Al 
  0.7592273  0.4791891  0.7488540

 Al 
  0.7536558  0.7580615  0.4909163

