32 
charge = 0 
 Al 
  0.9727254  0.0165153  0.9788278

 Al 
  0.0206091  0.2445003  0.2763106

 Al 
  0.2594550  0.9907703  0.2520927

 Al 
  0.2525011  0.2147381  0.0004975

 Al 
  0.4922182  0.9987810  0.9951636

 Al 
  0.4915932  0.2603411  0.2497116

 Al 
  0.7485434  0.0141565  0.2601752

 Al 
  0.7194310  0.2571147  0.0036607

 Al 
  0.9864376  0.4895277  0.0116838

 Al 
  0.9956401  0.7626825  0.2511188

 Al 
  0.2566259  0.4928382  0.2479902

 Al 
  0.2278377  0.7430288  0.0116356

 Al 
  0.9959853  0.0033625  0.5059428

 Al 
  0.0162999  0.2545270  0.7593547

 Al 
  0.2514702  0.9870093  0.7397307

 Al 
  0.2571593  0.2379994  0.5188506

 Al 
  0.0106505  0.5157727  0.5177194

 Al 
  0.0129499  0.7483726  0.7482847

 Al 
  0.2637431  0.5082632  0.7608361

 Al 
  0.2722254  0.7409893  0.4926278

 Al 
  0.5001720  0.5063598  0.9979456

 Al 
  0.5093708  0.7423952  0.2354314

 Al 
  0.7674063  0.4885290  0.2597545

 Al 
  0.7574031  0.7428766  0.9811457

 Al 
  0.4944941  0.9979184  0.4807943

 Al 
  0.4964135  0.2466215  0.7654039

 Al 
  0.7281669  0.0302398  0.7497154

 Al 
  0.7327298  0.2556482  0.5045728

 Al 
  0.4993094  0.4921526  0.4771756

 Al 
  0.4968937  0.7772722  0.7271039

 Al 
  0.7580281  0.4803883  0.7479518

 Al 
  0.7555121  0.7583078  0.4907901

