32 
charge = 0 
 Al 
  0.9723479  0.0105267  0.9807844

 Al 
  0.0233825  0.2410202  0.2736115

 Al 
  0.2595713  0.9921774  0.2497191

 Al 
  0.2501621  0.2164781  0.9996881

 Al 
  0.4901676  0.9975991  0.9951364

 Al 
  0.4912752  0.2587916  0.2485694

 Al 
  0.7531484  0.0140401  0.2605057

 Al 
  0.7186327  0.2550567  0.0035580

 Al 
  0.9839228  0.4907876  0.0123905

 Al 
  0.9960943  0.7630105  0.2506237

 Al 
  0.2563673  0.4956215  0.2514665

 Al 
  0.2279862  0.7435733  0.0097186

 Al 
  0.9943431  0.0030914  0.5068598

 Al 
  0.0177479  0.2558314  0.7569204

 Al 
  0.2517796  0.9896973  0.7394572

 Al 
  0.2585194  0.2406044  0.5207217

 Al 
  0.0123571  0.5144622  0.5181055

 Al 
  0.0153124  0.7469420  0.7453369

 Al 
  0.2660116  0.5087991  0.7594216

 Al 
  0.2705757  0.7400129  0.4950064

 Al 
  0.4969865  0.5049403  0.9999233

 Al 
  0.5104673  0.7467761  0.2365601

 Al 
  0.7680140  0.4913482  0.2588238

 Al 
  0.7548067  0.7435771  0.9806606

 Al 
  0.4940993  0.9939520  0.4804341

 Al 
  0.4922133  0.2535382  0.7627036

 Al 
  0.7292238  0.0278266  0.7488132

 Al 
  0.7333461  0.2568066  0.5061470

 Al 
  0.5001918  0.4919831  0.4811024

 Al 
  0.4985261  0.7745037  0.7268464

 Al 
  0.7597569  0.4787498  0.7492983

 Al 
  0.7526657  0.7578758  0.4910821

