32 
charge = 0 
 Al 
  0.9724840  0.0136144  0.9796916

 Al 
  0.0220311  0.2427392  0.2750446

 Al 
  0.2595837  0.9914509  0.2509034

 Al 
  0.2514269  0.2154275  0.0000705

 Al 
  0.4911428  0.9983206  0.9951153

 Al 
  0.4914311  0.2596740  0.2491622

 Al 
  0.7508378  0.0141181  0.2604388

 Al 
  0.7188889  0.2561346  0.0035506

 Al 
  0.9850799  0.4901874  0.0120600

 Al 
  0.9958554  0.7628768  0.2508638

 Al 
  0.2565838  0.4942119  0.2497215

 Al 
  0.2278056  0.7432590  0.0107297

 Al 
  0.9951500  0.0032437  0.5063611

 Al 
  0.0170709  0.2551619  0.7581951

 Al 
  0.2516620  0.9882939  0.7395327

 Al 
  0.2578400  0.2392109  0.5198579

 Al 
  0.0114957  0.5152270  0.5180239

 Al 
  0.0141986  0.7476239  0.7468034

 Al 
  0.2648842  0.5085763  0.7601740

 Al 
  0.2715249  0.7404906  0.4938605

 Al 
  0.4986139  0.5056371  0.9989456

 Al 
  0.5099055  0.7445250  0.2359809

 Al 
  0.7677615  0.4898780  0.2592743

 Al 
  0.7561915  0.7431600  0.9808957

 Al 
  0.4942379  0.9958752  0.4805765

 Al 
  0.4944198  0.2499728  0.7641812

 Al 
  0.7285654  0.0291879  0.7493132

 Al 
  0.7329476  0.2562695  0.5053970

 Al 
  0.4997141  0.4919942  0.4789540

 Al 
  0.4975843  0.7760717  0.7268328

 Al 
  0.7589451  0.4794490  0.7486300

 Al 
  0.7541359  0.7581382  0.4908594

