32 
charge = 0 
 Al 
  0.9726338  0.0155685  0.9790889

 Al 
  0.0210918  0.2439087  0.2759071

 Al 
  0.2595131  0.9909918  0.2516967

 Al 
  0.2521633  0.2149287  0.0003502

 Al 
  0.4918482  0.9986572  0.9951389

 Al 
  0.4915388  0.2601431  0.2495347

 Al 
  0.7493057  0.0141491  0.2602854

 Al 
  0.7192169  0.2567979  0.0036100

 Al 
  0.9859623  0.4897542  0.0118138

 Al 
  0.9957094  0.7627531  0.2510321

 Al 
  0.2566321  0.4932924  0.2485657

 Al 
  0.2278043  0.7430956  0.0113447

 Al 
  0.9957044  0.0033266  0.5060740

 Al 
  0.0165672  0.2547337  0.7589822

 Al 
  0.2515432  0.9874227  0.7396503

 Al 
  0.2573858  0.2383830  0.5192008

 Al 
  0.0109302  0.5156143  0.5178444

 Al 
  0.0133818  0.7481164  0.7477885

 Al 
  0.2641255  0.5083783  0.7606257

 Al 
  0.2720199  0.7408222  0.4930486

 Al 
  0.4996597  0.5061160  0.9982835

 Al 
  0.5095453  0.7430919  0.2356109

 Al 
  0.7675350  0.4889659  0.2595911

 Al 
  0.7570182  0.7429570  0.9810591

 Al 
  0.4943951  0.9972254  0.4807126

 Al 
  0.4957762  0.2477130  0.7650252

 Al 
  0.7282684  0.0299255  0.7495916

 Al 
  0.7327830  0.2558648  0.5048550

 Al 
  0.4994369  0.4920833  0.4777264

 Al 
  0.4970954  0.7769120  0.7269826

 Al 
  0.7583461  0.4800493  0.7481795

 Al 
  0.7550641  0.7582620  0.4907962

