32 
charge = 0 
 Al 
  0.9723281  0.0094575  0.9811952

 Al 
  0.0238181  0.2404596  0.2730979

 Al 
  0.2595367  0.9924274  0.2493255

 Al 
  0.2496980  0.2169101  0.9995718

 Al 
  0.4898644  0.9973034  0.9951549

 Al 
  0.4912232  0.2584526  0.2483664

 Al 
  0.7539206  0.0140067  0.2604859

 Al 
  0.7186092  0.2546743  0.0035840

 Al 
  0.9835837  0.4909757  0.0124895

 Al 
  0.9961796  0.7630402  0.2505482

 Al 
  0.2562571  0.4960992  0.2520519

 Al 
  0.2280951  0.7436971  0.0093572

 Al 
  0.9940832  0.0030333  0.5070467

 Al 
  0.0179508  0.2560579  0.7564725

 Al 
  0.2518044  0.9901886  0.7394597

 Al 
  0.2587459  0.2411081  0.5209742

 Al 
  0.0126467  0.5141565  0.5180820

 Al 
  0.0156527  0.7467304  0.7448517

 Al 
  0.2663816  0.5088572  0.7591505

 Al 
  0.2702044  0.7398619  0.4953703

 Al 
  0.4964272  0.5047151  0.0002475

 Al 
  0.5106591  0.7475509  0.2367606

 Al 
  0.7680734  0.4918630  0.2586827

 Al 
  0.7543042  0.7437441  0.9805839

 Al 
  0.4940783  0.9933394  0.4804044

 Al 
  0.4914410  0.2547659  0.7621578

 Al 
  0.7294948  0.0273081  0.7486263

 Al 
  0.7335181  0.2569638  0.5063784

 Al 
  0.5003688  0.4920128  0.4818982

 Al 
  0.4988924  0.7738998  0.7269145

 Al 
  0.7600045  0.4785716  0.7495211

 Al 
  0.7521583  0.7577657  0.4911910

