32 
charge = 0 
 Al 
  0.9725051  0.0027635  0.9840515

 Al 
  0.0262227  0.2373199  0.2696760

 Al 
  0.2590156  0.9939483  0.2470608

 Al 
  0.2465546  0.2203282  0.9989889

 Al 
  0.4882865  0.9950423  0.9953010

 Al 
  0.4909237  0.2560207  0.2471598

 Al 
  0.7584550  0.0137456  0.2599574

 Al 
  0.7190597  0.2521719  0.0039342

 Al 
  0.9820937  0.4919633  0.0129424

 Al 
  0.9967551  0.7630464  0.2501460

 Al 
  0.2552485  0.4990087  0.2555406

 Al 
  0.2292634  0.7446092  0.0069700

 Al 
  0.9926736  0.0026063  0.5083634

 Al 
  0.0188753  0.2573907  0.7536261

 Al 
  0.2518576  0.9932788  0.7397319

 Al 
  0.2600502  0.2444730  0.5219865

 Al 
  0.0143582  0.5117890  0.5173680

 Al 
  0.0173358  0.7456611  0.7420511

 Al 
  0.2684607  0.5090788  0.7573375

 Al 
  0.2674682  0.7391008  0.4973454

 Al 
  0.4929682  0.5034627  0.0022177

 Al 
  0.5117964  0.7523328  0.2379919

 Al 
  0.7681253  0.4951450  0.2579699

 Al 
  0.7509071  0.7450027  0.9801359

 Al 
  0.4942243  0.9900747  0.4804366

 Al 
  0.4866875  0.2622902  0.7584612

 Al 
  0.7315257  0.0236362  0.7473120

 Al 
  0.7349525  0.2576481  0.5075132

 Al 
  0.5015866  0.4925424  0.4873769

 Al 
  0.5015234  0.7695188  0.7280023

 Al 
  0.7612111  0.4781236  0.7508490

 Al 
  0.7490260  0.7568747  0.4921947

