32 
charge = 0 
 Al 
  0.9724382  0.0038983  0.9835379

 Al 
  0.0258514  0.2378075  0.2702787

 Al 
  0.2591382  0.9936983  0.2474222

 Al 
  0.2471140  0.2196661  0.9990706

 Al 
  0.4885204  0.9954668  0.9952775

 Al 
  0.4909720  0.2564650  0.2473541

 Al 
  0.7577224  0.0137939  0.2600911

 Al 
  0.7189186  0.2526088  0.0038562

 Al 
  0.9822732  0.4918148  0.0128855

 Al 
  0.9966512  0.7630674  0.2502054

 Al 
  0.2554539  0.4985248  0.2549688

 Al 
  0.2290097  0.7444396  0.0073895

 Al 
  0.9928853  0.0026867  0.5081221

 Al 
  0.0187590  0.2571779  0.7541124

 Al 
  0.2518563  0.9927565  0.7396577

 Al 
  0.2598436  0.2438803  0.5218851

 Al 
  0.0140822  0.5122444  0.5175548

 Al 
  0.0171019  0.7458133  0.7424991

 Al 
  0.2681390  0.5090515  0.7576580

 Al 
  0.2679768  0.7392047  0.4970435

 Al 
  0.4935498  0.5036570  0.0018860

 Al 
  0.5116120  0.7515346  0.2377853

 Al 
  0.7681550  0.4945832  0.2580714

 Al 
  0.7515135  0.7447688  0.9802089

 Al 
  0.4941698  0.9905623  0.4804032

 Al 
  0.4874709  0.2610428  0.7591146

 Al 
  0.7311482  0.0243045  0.7475509

 Al 
  0.7346678  0.2575677  0.5073573

 Al 
  0.5013675  0.4924125  0.4863942

 Al 
  0.5010445  0.7703282  0.7277437

 Al 
  0.7610452  0.4781224  0.7506287

 Al 
  0.7495483  0.7570492  0.4919868

