32 
charge = 0 
 Al 
  0.9738268  0.9930461  0.9888174

 Al 
  0.0287214  0.2339798  0.2641218

 Al 
  0.2574551  0.9958282  0.2443679

 Al 
  0.2414435  0.2273897  0.9985384

 Al 
  0.4867630  0.9909670  0.9953307

 Al 
  0.4905574  0.2518019  0.2457638

 Al 
  0.7641144  0.0132642  0.2581394

 Al 
  0.7212502  0.2481907  0.0048030

 Al 
  0.9818276  0.4929855  0.0130971

 Al 
  0.9977835  0.7623917  0.2497871

 Al 
  0.2530518  0.5030506  0.2601059

 Al 
  0.2323536  0.7462576  0.0030890

 Al 
  0.9914027  0.0017759  0.5107767

 Al 
  0.0190659  0.2588993  0.7493948

 Al 
  0.2518502  0.9976313  0.7407566

 Al 
  0.2614747  0.2498676  0.5214408

 Al 
  0.0164324  0.5069044  0.5146181

 Al 
  0.0184422  0.7448567  0.7386924

 Al 
  0.2704210  0.5093906  0.7544428

 Al 
  0.2624647  0.7388657  0.4994815

 Al 
  0.4880637  0.5021076  0.0052151

 Al 
  0.5131615  0.7588374  0.2397505

 Al 
  0.7671539  0.5000186  0.2574365

 Al 
  0.7452156  0.7472365  0.9795975

 Al 
  0.4951191  0.9870291  0.4813611

 Al 
  0.4808462  0.2721734  0.7526806

 Al 
  0.7351158  0.0172034  0.7449829

 Al 
  0.7381157  0.2577063  0.5082347

 Al 
  0.5037201  0.4943790  0.4964828

 Al 
  0.5059527  0.7615106  0.7313821

 Al 
  0.7619598  0.4794787  0.7527140

 Al 
  0.7448740  0.7549738  0.4945968

