32 
charge = 0 
 Al 
  0.9745520  0.9902171  0.9903148

 Al 
  0.0291533  0.2333585  0.2623546

 Al 
  0.2568140  0.9962428  0.2437379

 Al 
  0.2398607  0.2299886  0.9984827

 Al 
  0.4864710  0.9897060  0.9952267

 Al 
  0.4904695  0.2504418  0.2454891

 Al 
  0.7655116  0.0130897  0.2573808

 Al 
  0.7222514  0.2469333  0.0050827

 Al 
  0.9822509  0.4932219  0.0130117

 Al 
  0.9981585  0.7619846  0.2497475

 Al 
  0.2522845  0.5042028  0.2613014

 Al 
  0.2335936  0.7467935  0.0018378

 Al 
  0.9912678  0.0014739  0.5116059

 Al 
  0.0187800  0.2591827  0.7481424

 Al 
  0.2518749  0.9988392  0.7411787

 Al 
  0.2617086  0.2515247  0.5206364

 Al 
  0.0168791  0.5050864  0.5133620

 Al 
  0.0183976  0.7448097  0.7379016

 Al 
  0.2705683  0.5096084  0.7535654

 Al 
  0.2607953  0.7391255  0.4999579

 Al 
  0.4866752  0.5018155  0.0062039

 Al 
  0.5134585  0.7605502  0.2402715

 Al 
  0.7665573  0.5014640  0.2574056

 Al 
  0.7433766  0.7479308  0.9795047

 Al 
  0.4955163  0.9865898  0.4819464

 Al 
  0.4796520  0.2746151  0.7510334

 Al 
  0.7362754  0.0150587  0.7441958

 Al 
  0.7393384  0.2574786  0.5082149

 Al 
  0.5044577  0.4952292  0.4993169

 Al 
  0.5072942  0.7587805  0.7327830

 Al 
  0.7619115  0.4803982  0.7532672

 Al 
  0.7438444  0.7542622  0.4955386

