32 
charge = 0 
 Al 
  0.9732439  0.9961153  0.9872457

 Al 
  0.0280778  0.2348559  0.2659559

 Al 
  0.2580491  0.9952973  0.2451364

 Al 
  0.2431154  0.2248738  0.9986350

 Al 
  0.4871578  0.9923160  0.9953715

 Al 
  0.4906626  0.2532102  0.2461425

 Al 
  0.7624573  0.0134300  0.2588436

 Al 
  0.7203653  0.2494988  0.0045010

 Al 
  0.9816494  0.4927021  0.0131169

 Al 
  0.9974234  0.7627048  0.2498688

 Al 
  0.2538228  0.5017908  0.2587322

 Al 
  0.2311940  0.7457019  0.0043760

 Al 
  0.9916873  0.0020692  0.5099451

 Al 
  0.0191785  0.2584971  0.7507425

 Al 
  0.2518452  0.9962861  0.7403631

 Al 
  0.2611096  0.2481090  0.5219296

 Al 
  0.0158482  0.5086543  0.5157245

 Al 
  0.0182788  0.7450114  0.7396552

 Al 
  0.2699941  0.5092495  0.7553834

 Al 
  0.2641664  0.7387864  0.4988911

 Al 
  0.4895946  0.5024776  0.0042189

 Al 
  0.5127803  0.7568672  0.2391948

 Al 
  0.7676167  0.4984667  0.2575380

 Al 
  0.7471128  0.7464989  0.9797423

 Al 
  0.4947564  0.9877580  0.4809193

 Al 
  0.4824637  0.2692515  0.7545134

 Al 
  0.7339179  0.0193778  0.7457774

 Al 
  0.7369623  0.2578177  0.5081295

 Al 
  0.5029912  0.4936426  0.4934879

 Al 
  0.5045097  0.7642530  0.7300876

 Al 
  0.7618620  0.4787758  0.7521237

 Al 
  0.7461042  0.7556581  0.4937095

