32 
charge = 0 
 Al 
  0.9730805  0.9971858  0.9867111

 Al 
  0.0278192  0.2352037  0.2665771

 Al 
  0.2582347  0.9950955  0.2454235

 Al 
  0.2436872  0.2240619  0.9986770

 Al 
  0.4873137  0.9927763  0.9953715

 Al 
  0.4907022  0.2536842  0.2462898

 Al 
  0.7618484  0.0134845  0.2590602

 Al 
  0.7201005  0.2499431  0.0043995

 Al 
  0.9816482  0.4925957  0.0131083

 Al 
  0.9973071  0.7627877  0.2499047

 Al 
  0.2540765  0.5013477  0.2582372

 Al 
  0.2308314  0.7455151  0.0048104

 Al 
  0.9918135  0.0021645  0.5096703

 Al 
  0.0191760  0.2583387  0.7512103

 Al 
  0.2518464  0.9958096  0.7402406

 Al 
  0.2609599  0.2475075  0.5220237

 Al 
  0.0156267  0.5092161  0.5160549

 Al 
  0.0181786  0.7450869  0.7400129

 Al 
  0.2697960  0.5092137  0.7557064

 Al 
  0.2647332  0.7387976  0.4986671

 Al 
  0.4901329  0.5026187  0.0038859

 Al 
  0.5126343  0.7561581  0.2390018

 Al 
  0.7677417  0.4979283  0.2575887

 Al 
  0.7477526  0.7462465  0.9798005

 Al 
  0.4946475  0.9880662  0.4808029

 Al 
  0.4830887  0.2681810  0.7551569

 Al 
  0.7335144  0.0201030  0.7460410

 Al 
  0.7365972  0.2578263  0.5080652

 Al 
  0.5027511  0.4934236  0.4924670

 Al 
  0.5040134  0.7651614  0.7296866

 Al 
  0.7617952  0.4785939  0.7519182

 Al 
  0.7465534  0.7558772  0.4934298

