32 
charge = 0 
 Al 
  0.9781075  0.9823920  0.9946339

 Al 
  0.0289949  0.2330429  0.2569799

 Al 
  0.2544379  0.9967390  0.2425622

 Al 
  0.2353435  0.2391540  0.9983875

 Al 
  0.4860947  0.9864400  0.9943468

 Al 
  0.4903396  0.2463282  0.2453047

 Al 
  0.7683914  0.0123051  0.2546891

 Al 
  0.7263502  0.2430969  0.0056383

 Al 
  0.9852594  0.4938691  0.0123162

 Al 
  0.9995904  0.7598881  0.2499394

 Al 
  0.2499542  0.5073660  0.2640129

 Al 
  0.2381305  0.7483924  0.9979221

 Al 
  0.9919076  0.0004059  0.5141540

 Al 
  0.0165722  0.2592396  0.7446748

 Al 
  0.2521138  0.0020098  0.7426835

 Al 
  0.2614932  0.2561915  0.5156440

 Al 
  0.0172442  0.4986647  0.5082694

 Al 
  0.0168148  0.7452428  0.7364239

 Al 
  0.2687379  0.5110985  0.7511447

 Al 
  0.2555925  0.7414608  0.5008787

 Al 
  0.4830602  0.5012450  0.0095923

 Al 
  0.5138471  0.7644287  0.2418927

 Al 
  0.7635946  0.5055888  0.2577088

 Al 
  0.7377593  0.7497884  0.9798055

 Al 
  0.4969952  0.9869697  0.4850601

 Al 
  0.4789268  0.2791198  0.7471994

 Al 
  0.7398668  0.0081011  0.7416910

 Al 
  0.7438716  0.2560331  0.5073895

 Al 
  0.5070727  0.4989629  0.5072496

 Al 
  0.5108349  0.7499035  0.7379697

 Al 
  0.7608113  0.4848089  0.7548611

 Al 
  0.7418927  0.7517177  0.4989753

