32 
charge = 0 
 Al 
  0.9785778  0.9817163  0.9950114

 Al 
  0.0288340  0.2331531  0.2564725

 Al 
  0.2541768  0.9967143  0.2425140

 Al 
  0.2349525  0.2401342  0.9983726

 Al 
  0.4861009  0.9862024  0.9942094

 Al 
  0.4903421  0.2459457  0.2453455

 Al 
  0.7685424  0.0121937  0.2544156

 Al 
  0.7268341  0.2427355  0.0056495

 Al 
  0.9856901  0.4939372  0.0122147

 Al 
  0.9997574  0.7596072  0.2499913

 Al 
  0.2497463  0.5076407  0.2641812

 Al 
  0.2386181  0.7485372  0.9975422

 Al 
  0.9920697  0.0002908  0.5143792

 Al 
  0.0162405  0.2591703  0.7443790

 Al 
  0.2521509  0.0022722  0.7428407

 Al 
  0.2613930  0.2565925  0.5149411

 Al 
  0.0171749  0.4979890  0.5076828

 Al 
  0.0165314  0.7453245  0.7363633

 Al 
  0.2683357  0.5113200  0.7509405

 Al 
  0.2550926  0.7418346  0.5009245

 Al 
  0.4827781  0.5012103  0.0099525

 Al 
  0.5138384  0.7646738  0.2420610

 Al 
  0.7632048  0.5059576  0.2577632

 Al 
  0.7372333  0.7499332  0.9799082

 Al 
  0.4971536  0.9871504  0.4854859

 Al 
  0.4791310  0.2792696  0.7469593

 Al 
  0.7402134  0.0074006  0.7414509

 Al 
  0.7443703  0.2558401  0.5072484

 Al 
  0.5073573  0.4994245  0.5079130

 Al 
  0.5111084  0.7490211  0.7385340

 Al 
  0.7606269  0.4853621  0.7550059

 Al 
  0.7418209  0.7514455  0.4993453

