32 
charge = 0 
 Al 
  0.9772363  0.9837916  0.9938506

 Al 
  0.0292325  0.2328981  0.2580058

 Al 
  0.2549441  0.9967477  0.2426959

 Al 
  0.2361566  0.2372395  0.9984110

 Al 
  0.4861046  0.9869648  0.9945919

 Al 
  0.4903433  0.2471078  0.2452552

 Al 
  0.7680177  0.0125043  0.2552361

 Al 
  0.7254282  0.2438308  0.0055888

 Al 
  0.9844674  0.4937404  0.0125019

 Al 
  0.9992723  0.7604079  0.2498552

 Al 
  0.2503861  0.5067992  0.2636206

 Al 
  0.2371751  0.7480954  0.9986857

 Al 
  0.9916403  0.0006312  0.5136825

 Al 
  0.0171724  0.2593374  0.7452911

 Al 
  0.2520469  0.0014616  0.7423729

 Al 
  0.2616541  0.2553574  0.5169336

 Al 
  0.0173197  0.4999950  0.5093993

 Al 
  0.0173098  0.7450980  0.7365885

 Al 
  0.2694149  0.5106963  0.7515717

 Al 
  0.2565974  0.7407962  0.5007636

 Al 
  0.4836654  0.5013242  0.0088869

 Al 
  0.5138397  0.7638632  0.2415660

 Al 
  0.7643174  0.5048314  0.2576085

 Al 
  0.7388273  0.7494765  0.9796470

 Al 
  0.4966833  0.9866838  0.4842755

 Al 
  0.4786706  0.2786595  0.7477575

 Al 
  0.7391701  0.0094909  0.7421761

 Al 
  0.7429001  0.2563957  0.5076395

 Al 
  0.5065182  0.4980917  0.5058524

 Al 
  0.5102445  0.7516658  0.7368695

 Al 
  0.7611405  0.4837657  0.7545666

 Al 
  0.7421056  0.7522511  0.4982501

