32 
charge = 0 
 Al 
  0.9801384  0.9797770  0.9960881

 Al 
  0.0281743  0.2336419  0.2549676

 Al 
  0.2533637  0.9965571  0.2424348

 Al 
  0.2338473  0.2431687  0.9983083

 Al 
  0.4861678  0.9856022  0.9937441

 Al 
  0.4903742  0.2448159  0.2455274

 Al 
  0.7688543  0.0118014  0.2535926

 Al 
  0.7283835  0.2416675  0.0056198

 Al 
  0.9871281  0.4941575  0.0118732

 Al 
  0.0002945  0.7586716  0.2501918

 Al 
  0.2491510  0.5084352  0.2645760

 Al 
  0.2401255  0.7489592  0.9964024

 Al 
  0.9926749  0.9999270  0.5150092

 Al 
  0.0151168  0.2588795  0.7435399

 Al 
  0.2522734  0.0030147  0.7433196

 Al 
  0.2610143  0.2577311  0.5126083

 Al 
  0.0168383  0.4959259  0.5058326

 Al 
  0.0155376  0.7455968  0.7362730

 Al 
  0.2668692  0.5120563  0.7503614

 Al 
  0.2536013  0.7431303  0.5010222

 Al 
  0.4820170  0.5011163  0.0110737

 Al 
  0.5137580  0.7652690  0.2425870

 Al 
  0.7619227  0.5070343  0.2579377

 Al 
  0.7356913  0.7503193  0.9803252

 Al 
  0.4976474  0.9878409  0.4869091

 Al 
  0.4800381  0.2793921  0.7463900

 Al 
  0.7412554  0.0052695  0.7407455

 Al 
  0.7459284  0.2552151  0.5067682

 Al 
  0.5082434  0.5009146  0.5097607

 Al 
  0.5118323  0.7463640  0.7402876

 Al 
  0.7599983  0.4871467  0.7554317

 Al 
  0.7417405  0.7506052  0.5004901

