32 
charge = 0 
 Al 
  0.9846802  0.9757710  0.9982266

 Al 
  0.0255346  0.2356765  0.2515457

 Al 
  0.2512895  0.9957267  0.2426006

 Al 
  0.2317286  0.2507908  0.9980001

 Al 
  0.4865861  0.9849364  0.9923568

 Al 
  0.4906044  0.2423123  0.2462725

 Al 
  0.7687664  0.0104450  0.2517474

 Al 
  0.7325962  0.2393149  0.0051285

 Al 
  0.9912343  0.4948517  0.0108707

 Al 
  0.0017289  0.7559428  0.2509690

 Al 
  0.2480100  0.5101344  0.2648025

 Al 
  0.2438654  0.7498688  0.9937788

 Al 
  0.9948084  0.9989691  0.5160772

 Al 
  0.0117507  0.2577261  0.7418989

 Al 
  0.2526051  0.0045196  0.7444644

 Al 
  0.2597780  0.2599958  0.5059700

 Al 
  0.0152233  0.4910029  0.5010742

 Al 
  0.0123459  0.7463504  0.7365749

 Al 
  0.2619214  0.5140488  0.7491721

 Al 
  0.2501609  0.7471808  0.5010408

 Al 
  0.4807930  0.5009170  0.0138978

 Al 
  0.5132506  0.7658297  0.2439953

 Al 
  0.7582533  0.5093535  0.2583214

 Al 
  0.7324006  0.7509071  0.9820875

 Al 
  0.4988837  0.9902777  0.4910821

 Al 
  0.4837694  0.2778192  0.7459136

 Al 
  0.7437058  0.0001250  0.7392468

 Al 
  0.7498453  0.2535493  0.5053252

 Al 
  0.5104339  0.5049230  0.5131355

 Al 
  0.5128607  0.7402022  0.7447317

 Al 
  0.7581592  0.4919682  0.7564007

 Al 
  0.7424274  0.7485632  0.5032894

