32 
charge = 0 
 Al 
  0.9795926  0.9804094  0.9957391

 Al 
  0.0284243  0.2334526  0.2554676

 Al 
  0.2536409  0.9966227  0.2424496

 Al 
  0.2342038  0.2421402  0.9983342

 Al 
  0.4861381  0.9857829  0.9939087

 Al 
  0.4903594  0.2451896  0.2454569

 Al 
  0.7687738  0.0119425  0.2538661

 Al 
  0.7278501  0.2420202  0.0056408

 Al 
  0.9866257  0.4940807  0.0119920

 Al 
  0.0001089  0.7589983  0.2501163

 Al 
  0.2493441  0.5081741  0.2644634

 Al 
  0.2396156  0.7488206  0.9967823

 Al 
  0.9924533  0.0000507  0.5148074

 Al 
  0.0155128  0.2589897  0.7438109

 Al 
  0.2522313  0.0027734  0.7431588

 Al 
  0.2611517  0.2573623  0.5134238

 Al 
  0.0169732  0.4966202  0.5064638

 Al 
  0.0158940  0.7455015  0.7362890

 Al 
  0.2674026  0.5117989  0.7505495

 Al 
  0.2540976  0.7426687  0.5009962

 Al 
  0.4822558  0.5011460  0.0106938

 Al 
  0.5137939  0.7650945  0.2424076

 Al 
  0.7623694  0.5066804  0.2578783

 Al 
  0.7361999  0.7501992  0.9801668

 Al 
  0.4974803  0.9875860  0.4864091

 Al 
  0.4796866  0.2794045  0.7465546

 Al 
  0.7409076  0.0059861  0.7409782

 Al 
  0.7453987  0.2554304  0.5069378

 Al 
  0.5079427  0.5004010  0.5091691

 Al 
  0.5116071  0.7472514  0.7396923

 Al 
  0.7602198  0.4865304  0.7552906

 Al 
  0.7417430  0.7508886  0.5001040

