32 
charge = 0 
 Al 
  0.9790728  0.9810554  0.9953802

 Al 
  0.0286446  0.2332904  0.2559688

 Al 
  0.2539119  0.9966759  0.2424769

 Al 
  0.2345725  0.2411292  0.9983553

 Al 
  0.4861158  0.9859834  0.9940634

 Al 
  0.4903495  0.2455658  0.2453963

 Al 
  0.7686699  0.0120737  0.2541409

 Al 
  0.7273340  0.2423766  0.0056507

 Al 
  0.9861467  0.4940065  0.0121058

 Al 
  0.9999307  0.7593102  0.2500495

 Al 
  0.2495421  0.5079105  0.2643322

 Al 
  0.2391132  0.7486808  0.9971623

 Al 
  0.9922516  0.0001720  0.5145983

 Al 
  0.0158878  0.2590874  0.7440906

 Al 
  0.2521892  0.0025271  0.7429991

 Al 
  0.2612791  0.2569823  0.5142010

 Al 
  0.0170846  0.4973083  0.5070813

 Al 
  0.0162244  0.7454099  0.7363187

 Al 
  0.2678914  0.5115539  0.7507425

 Al 
  0.2545951  0.7422368  0.5009641

 Al 
  0.4825095  0.5011769  0.0103200

 Al 
  0.5138199  0.7648965  0.2422318

 Al 
  0.7627976  0.5063215  0.2578202

 Al 
  0.7367135  0.7500705  0.9800282

 Al 
  0.4973157  0.9873558  0.4859351

 Al 
  0.4793847  0.2793636  0.7467440

 Al 
  0.7405611  0.0066965  0.7412133

 Al 
  0.7448802  0.2556396  0.5070987

 Al 
  0.5076469  0.4999035  0.5085528

 Al 
  0.5113658  0.7481375  0.7391082

 Al 
  0.7604302  0.4859363  0.7551495

 Al 
  0.7417702  0.7511695  0.4997215

