32 
charge = 0 
 Al 
  0.9807101  0.9791594  0.9964272

 Al 
  0.0278934  0.2338560  0.2544701

 Al 
  0.2530828  0.9964767  0.2424298

 Al 
  0.2335021  0.2442144  0.9982798

 Al 
  0.4862049  0.9854401  0.9935696

 Al 
  0.4903928  0.2444458  0.2456079

 Al 
  0.7689124  0.0116492  0.2533204

 Al 
  0.7289342  0.2413173  0.0055876

 Al 
  0.9876541  0.4942404  0.0117469

 Al 
  0.0004851  0.7583276  0.2502760

 Al 
  0.2489654  0.5086914  0.2646701

 Al 
  0.2406428  0.7490953  0.9960237

 Al 
  0.9929174  0.9997995  0.5152010

 Al 
  0.0146973  0.2587545  0.7432763

 Al 
  0.2523192  0.0032486  0.7434805

 Al 
  0.2608646  0.2580887  0.5117556

 Al 
  0.0166811  0.4952267  0.5051879

 Al 
  0.0151564  0.7456958  0.7362717

 Al 
  0.2662913  0.5123224  0.7501782

 Al 
  0.2531050  0.7436204  0.5010420

 Al 
  0.4817930  0.5010866  0.0114598

 Al 
  0.5137134  0.7654188  0.2427714

 Al 
  0.7614561  0.5073833  0.2579984

 Al 
  0.7351901  0.7504307  0.9805047

 Al 
  0.4978157  0.9881194  0.4874326

 Al 
  0.4804378  0.2793240  0.7462502

 Al 
  0.7416031  0.0045480  0.7405166

 Al 
  0.7464668  0.2549923  0.5065875

 Al 
  0.5085491  0.5014467  0.5103275

 Al 
  0.5120402  0.7454755  0.7408940

 Al 
  0.7597644  0.4877828  0.7555727

 Al 
  0.7417615  0.7503193  0.5008824

