32 
charge = 0 
 Al 
  0.9877370  0.9738949  0.9991399

 Al 
  0.0233664  0.2373249  0.2497092

 Al 
  0.2500421  0.9950225  0.2428704

 Al 
  0.2309069  0.2552634  0.9976957

 Al 
  0.4869796  0.9850973  0.9914460

 Al 
  0.4908544  0.2410227  0.2468467

 Al 
  0.7682256  0.0093411  0.2508304

 Al 
  0.7352953  0.2381417  0.0045629

 Al 
  0.9938691  0.4953975  0.0101901

 Al 
  0.0025890  0.7541099  0.2516051

 Al 
  0.2475855  0.5109896  0.2644683

 Al 
  0.2460274  0.7503329  0.9923840

 Al 
  0.9964358  0.9983689  0.5163123

 Al 
  0.0094834  0.2568140  0.7412232

 Al 
  0.2527808  0.0052349  0.7451116

 Al 
  0.2589661  0.2609821  0.5017375

 Al 
  0.0137753  0.4883360  0.4982600

 Al 
  0.0100478  0.7467984  0.7370613

 Al 
  0.2583102  0.5151564  0.7485879

 Al 
  0.2483058  0.7500235  0.5009542

 Al 
  0.4804923  0.5007859  0.0155599

 Al 
  0.5127531  0.7656552  0.2449210

 Al 
  0.7558351  0.5104933  0.2584402

 Al 
  0.7308920  0.7510272  0.9836555

 Al 
  0.4996201  0.9920858  0.4938815

 Al 
  0.4866776  0.2758799  0.7461202

 Al 
  0.7450782  0.9972105  0.7385748

 Al 
  0.7521138  0.2525481  0.5043500

 Al 
  0.5116294  0.5073449  0.5143471

 Al 
  0.5129263  0.7369326  0.7473739

 Al 
  0.7570071  0.4949433  0.7569303

 Al 
  0.7433914  0.7474382  0.5048438

