32 
charge = 0 
 Al 
  0.9917170  0.9721289  0.9998837

 Al 
  0.0201908  0.2396639  0.2476622

 Al 
  0.2485360  0.9940510  0.2433097

 Al 
  0.2303908  0.2604809  0.9971845

 Al 
  0.4876021  0.9858769  0.9903284

 Al 
  0.4912987  0.2396577  0.2476078

 Al 
  0.7671427  0.0076543  0.2499406

 Al 
  0.7387369  0.2369784  0.0036063

 Al 
  0.9970917  0.4962576  0.0092805

 Al 
  0.0035592  0.7517252  0.2525234

 Al 
  0.2473541  0.5119016  0.2636243

 Al 
  0.2485186  0.7508292  0.9909002

 Al 
  0.9987179  0.9976251  0.5161180

 Al 
  0.0065801  0.2555220  0.7407344

 Al 
  0.2529182  0.0059737  0.7458690

 Al 
  0.2580021  0.2618088  0.4965979

 Al 
  0.0115551  0.4855032  0.4949817

 Al 
  0.0069365  0.7473021  0.7379387

 Al 
  0.2534627  0.5162220  0.7479456

 Al 
  0.2462824  0.7537721  0.5008032

 Al 
  0.4805554  0.5005767  0.0174979

 Al 
  0.5119425  0.7650339  0.2461784

 Al 
  0.7527412  0.5116059  0.2584068

 Al 
  0.7296371  0.7509690  0.9861257

 Al 
  0.5005099  0.9945238  0.4974853

 Al 
  0.4906242  0.2727526  0.7467328

 Al 
  0.7466648  0.9938691  0.7380489

 Al 
  0.7547027  0.2513700  0.5030716

 Al 
  0.5128484  0.5101406  0.5150178

 Al 
  0.5124016  0.7334909  0.7505223

 Al 
  0.7556878  0.4985013  0.7575454

 Al 
  0.7450918  0.7462353  0.5065294

