32 
charge = 0 
 Al 
  0.9997599  0.9706636  0.0001064

 Al 
  0.0124301  0.2448307  0.2442379

 Al 
  0.2457762  0.9922256  0.2443542

 Al 
  0.2313029  0.2689310  0.9956413

 Al 
  0.4894015  0.9894844  0.9884981

 Al 
  0.4928259  0.2377407  0.2490273

 Al 
  0.7638087  0.0031038  0.2490842

 Al 
  0.7457910  0.2357507  0.0009517

 Al 
  0.0025358  0.4989530  0.0072212

 Al 
  0.0047597  0.7468318  0.2545777

 Al 
  0.2479778  0.5133582  0.2607260

 Al 
  0.2525803  0.7515123  0.9889956

 Al 
  0.0038612  0.9963789  0.5137926

 Al 
  0.0009777  0.2525420  0.7410611

 Al 
  0.2527239  0.0071345  0.7472142

 Al 
  0.2564687  0.2620180  0.4878211

 Al 
  0.0058920  0.4820516  0.4896713

 Al 
  0.0002735  0.7479654  0.7406304

 Al 
  0.2433939  0.5166353  0.7466512

 Al 
  0.2434941  0.7612618  0.5005705

 Al 
  0.4822435  0.4998589  0.0205089

 Al 
  0.5095589  0.7628583  0.2492946

 Al 
  0.7466264  0.5125773  0.2575095

 Al 
  0.7297659  0.7503007  0.9928679

 Al 
  0.5021682  0.9995471  0.5046087

 Al 
  0.4987352  0.2649918  0.7487265

 Al 
  0.7494109  0.9884535  0.7383706

 Al 
  0.7586394  0.2493033  0.5003032

 Al 
  0.5137976  0.5142827  0.5135674

 Al 
  0.5091456  0.7292510  0.7560740

 Al 
  0.7539280  0.5044527  0.7587038

 Al 
  0.7499418  0.7447465  0.5086308

