32 
charge = 0 
 Al 
  0.9940498  0.9714074  0.0001163

 Al 
  0.0181451  0.2411094  0.2465955

 Al 
  0.2477006  0.9934830  0.2435956

 Al 
  0.2303685  0.2632345  0.9968158

 Al 
  0.4880328  0.9866257  0.9897245

 Al 
  0.4916366  0.2389931  0.2480447

 Al 
  0.7663346  0.0065121  0.2495644

 Al 
  0.7407455  0.2364685  0.0029367

 Al 
  0.9988441  0.4968739  0.0087236

 Al 
  0.0040320  0.7503230  0.2530989

 Al 
  0.2473801  0.5123620  0.2629412

 Al 
  0.2498255  0.7510730  0.9901923

 Al 
  0.0001361  0.9972155  0.5157331

 Al 
  0.0049168  0.2547139  0.7406403

 Al 
  0.2529367  0.0063400  0.7462786

 Al 
  0.2574984  0.2620749  0.4938085

 Al 
  0.0100824  0.4841703  0.4932528

 Al 
  0.0050542  0.7475509  0.7385798

 Al 
  0.2505755  0.5166118  0.7475954

 Al 
  0.2452849  0.7559712  0.5007141

 Al 
  0.4808153  0.5004195  0.0185115

 Al 
  0.5113720  0.7645129  0.2469766

 Al 
  0.7509517  0.5120737  0.2582756

 Al 
  0.7292807  0.7508440  0.9878150

 Al 
  0.5010049  0.9959742  0.4995730

 Al 
  0.4929706  0.2706821  0.7472217

 Al 
  0.7475150  0.9921180  0.7379313

 Al 
  0.7560344  0.2507363  0.5023068

 Al 
  0.5133595  0.5115687  0.5149832

 Al 
  0.5117791  0.7318747  0.7522363

 Al 
  0.7550356  0.5004109  0.7578833

 Al 
  0.7463034  0.7456685  0.5073350

