32 
charge = 0 
 Al 
  0.9984048  0.9706995  0.0001807

 Al 
  0.0138929  0.2439260  0.2447775

 Al 
  0.2462205  0.9924967  0.2441674

 Al 
  0.2309391  0.2677256  0.9959594

 Al 
  0.4890241  0.9886615  0.9887481

 Al 
  0.4924830  0.2379932  0.2488095

 Al 
  0.7644832  0.0040048  0.2491411

 Al 
  0.7445622  0.2358522  0.0014690

 Al 
  0.0017524  0.4983639  0.0076011

 Al 
  0.0046545  0.7476721  0.2542213

 Al 
  0.2477637  0.5131330  0.2613200

 Al 
  0.2519813  0.7514306  0.9892060

 Al 
  0.0029442  0.9965447  0.5143990

 Al 
  0.0018947  0.2530877  0.7408705

 Al 
  0.2528130  0.0069514  0.7469989

 Al 
  0.2566890  0.2621294  0.4891243

 Al 
  0.0069687  0.4823920  0.4904324

 Al 
  0.0014306  0.7478974  0.7400698

 Al 
  0.2451153  0.5167665  0.7468999

 Al 
  0.2438258  0.7600267  0.5005878

 Al 
  0.4817868  0.5000198  0.0201092

 Al 
  0.5100564  0.7632951  0.2486820

 Al 
  0.7476486  0.5125489  0.2577595

 Al 
  0.7294577  0.7504591  0.9915326

 Al 
  0.5018947  0.9986981  0.5034219

 Al 
  0.4973628  0.2664212  0.7483330

 Al 
  0.7489815  0.9892419  0.7381590

 Al 
  0.7581135  0.2496349  0.5008044

 Al 
  0.5138149  0.5137481  0.5140810

 Al 
  0.5099265  0.7296916  0.7552052

 Al 
  0.7541211  0.5035827  0.7585058

 Al 
  0.7489901  0.7449037  0.5084229

