32 
charge = 0 
 Al 
  0.9948072  0.9712242  0.0001609

 Al 
  0.0174496  0.2415883  0.2462650

 Al 
  0.2474370  0.9933023  0.2436921

 Al 
  0.2304081  0.2640773  0.9966833

 Al 
  0.4881850  0.9869177  0.9895401

 Al 
  0.4917603  0.2387976  0.2481833

 Al 
  0.7660450  0.0061136  0.2494641

 Al 
  0.7413989  0.2363299  0.0027016

 Al 
  0.9993874  0.4970967  0.0085367

 Al 
  0.0041669  0.7498651  0.2532907

 Al 
  0.2474147  0.5125031  0.2626912

 Al 
  0.2502265  0.7511447  0.9899881

 Al 
  0.0006089  0.9970880  0.5155623

 Al 
  0.0043834  0.2544441  0.7406403

 Al 
  0.2529318  0.0064514  0.7464086

 Al 
  0.2573449  0.2621269  0.4929434

 Al 
  0.0095763  0.4837916  0.4927244

 Al 
  0.0044354  0.7476226  0.7388087

 Al 
  0.2496324  0.5166960  0.7474803

 Al 
  0.2449928  0.7566828  0.5006868

 Al 
  0.4809353  0.5003614  0.0188184

 Al 
  0.5111690  0.7643235  0.2472489

 Al 
  0.7503750  0.5121949  0.2582137

 Al 
  0.7292288  0.7507920  0.9884053

 Al 
  0.5011621  0.9964470  0.5002463

 Al 
  0.4937330  0.2699780  0.7473974

 Al 
  0.7477798  0.9915821  0.7379263

 Al 
  0.7564341  0.2505383  0.5020544

 Al 
  0.5134894  0.5119945  0.5149064

 Al 
  0.5115242  0.7314155  0.7527721

 Al 
  0.7548463  0.5010012  0.7579909

 Al 
  0.7467304  0.7455076  0.5075652

