32 
charge = 0 
 Al 
  0.9970039  0.9708319  0.0002104

 Al 
  0.0153309  0.2430041  0.2453443

 Al 
  0.2466870  0.9927986  0.2439780

 Al 
  0.2306618  0.2663779  0.9962613

 Al 
  0.4886726  0.9879090  0.9890377

 Al 
  0.4921724  0.2382828  0.2485731

 Al 
  0.7651304  0.0048723  0.2492377

 Al 
  0.7433159  0.2360019  0.0019727

 Al 
  0.0008774  0.4978244  0.0079773

 Al 
  0.0044973  0.7485323  0.2538562

 Al 
  0.2475905  0.5128942  0.2618905

 Al 
  0.2513279  0.7513304  0.9894733

 Al 
  0.0020160  0.9967415  0.5149250

 Al 
  0.0028551  0.2536310  0.7407356

 Al 
  0.2528786  0.0067608  0.7467724

 Al 
  0.2569303  0.2621776  0.4905524

 Al 
  0.0080268  0.4828560  0.4912801

 Al 
  0.0026125  0.7478046  0.7395426

 Al 
  0.2468838  0.5168073  0.7471375

 Al 
  0.2442342  0.7587335  0.5006188

 Al 
  0.4813982  0.5001658  0.0196414

 Al 
  0.5105218  0.7637184  0.2480942

 Al 
  0.7487080  0.5124573  0.2579699

 Al 
  0.7292708  0.7506039  0.9902468

 Al 
  0.5016113  0.9978207  0.5021892

 Al 
  0.4959482  0.2678469  0.7479494

 Al 
  0.7485248  0.9901119  0.7380142

 Al 
  0.7575058  0.2499802  0.5013019

 Al 
  0.5137481  0.5131219  0.5144943

 Al 
  0.5106269  0.7302708  0.7542807

 Al 
  0.7543674  0.5026224  0.7583040

 Al 
  0.7480632  0.7451067  0.5081382

