32 
charge = 0 
 Al 
  0.0042127  0.9712985  0.9995693

 Al 
  0.0070009  0.2478887  0.2424397

 Al 
  0.2443555  0.9915487  0.2450027

 Al 
  0.2332409  0.2721623  0.9943815

 Al 
  0.4909980  0.9929360  0.9879226

 Al 
  0.4943456  0.2370935  0.2496522

 Al 
  0.7612098  0.9996386  0.2491547

 Al 
  0.7501114  0.2357284  0.9990421

 Al 
  0.0045716  0.5014962  0.0058153

 Al 
  0.0047065  0.7439842  0.2557312

 Al 
  0.2490236  0.5140822  0.2584872

 Al 
  0.2543352  0.7516398  0.9886775

 Al 
  0.0070120  0.9960918  0.5109933

 Al 
  0.9980137  0.2505482  0.7421427

 Al 
  0.2522152  0.0077768  0.7479258

 Al 
  0.2558066  0.2611554  0.4840948

 Al 
  0.0019380  0.4817781  0.4876083

 Al 
  0.9963764  0.7480199  0.7429125

 Al 
  0.2375848  0.5154881  0.7456005

 Al 
  0.2429125  0.7651379  0.5006349

 Al 
  0.4844253  0.4991758  0.0213900

 Al 
  0.5075170  0.7612631  0.2517165

 Al 
  0.7432652  0.5121677  0.2562980

 Al 
  0.7317818  0.7496473  0.9979939

 Al 
  0.5030939  0.0023390  0.5084934

 Al 
  0.5033179  0.2599055  0.7501782

 Al 
  0.7507599  0.9862457  0.7396713

 Al 
  0.7598795  0.2481758  0.4984766

 Al 
  0.5130810  0.5155067  0.5110428

 Al 
  0.5058054  0.7286855  0.7587805

 Al 
  0.7536248  0.5068833  0.7594005

 Al 
  0.7534813  0.7445102  0.5087694

