32 
charge = 0 
 Al 
  0.0010730  0.9707242  0.9999938

 Al 
  0.0109351  0.2457180  0.2437169

 Al 
  0.2453530  0.9919880  0.2445399

 Al 
  0.2317497  0.2700052  0.9953047

 Al 
  0.4898087  0.9903792  0.9882852

 Al 
  0.4932045  0.2375217  0.2492265

 Al 
  0.7631070  0.0021670  0.2490632

 Al 
  0.7470138  0.2356950  0.0004220

 Al 
  0.0032263  0.4995978  0.0068338

 Al 
  0.0048116  0.7460076  0.2549218

 Al 
  0.2482315  0.5135736  0.2601109

 Al 
  0.2531310  0.7515742  0.9888409

 Al 
  0.0047696  0.9962465  0.5131033

 Al 
  0.0000965  0.2519888  0.7413036

 Al 
  0.2526100  0.0073152  0.7474222

 Al 
  0.2562670  0.2618459  0.4866331

 Al 
  0.0047956  0.4818289  0.4889906

 Al 
  0.9991387  0.7480112  0.7412282

 Al 
  0.2417083  0.5164163  0.7463838

 Al 
  0.2432367  0.7624387  0.5005668

 Al 
  0.4827707  0.4996832  0.0208443

 Al 
  0.5090280  0.7624128  0.2499381

 Al 
  0.7456376  0.5125402  0.2572187

 Al 
  0.7301940  0.7501287  0.9942552

 Al 
  0.5024343  0.0003700  0.5057559

 Al 
  0.5000705  0.2635563  0.7491300

 Al 
  0.7498181  0.9877407  0.7386516

 Al 
  0.7590862  0.2489815  0.4997970

 Al 
  0.5136973  0.5147295  0.5129598

 Al 
  0.5082880  0.7289404  0.7568945

 Al 
  0.7537857  0.5052398  0.7589018

 Al 
  0.7509207  0.7446327  0.5087644

