32 
charge = 0 
 Al 
  0.0023501  0.9708814  0.9998465

 Al 
  0.0093993  0.2465930  0.2432058

 Al 
  0.2449446  0.9917838  0.2447243

 Al 
  0.2322818  0.2709556  0.9949495

 Al 
  0.4902530  0.9913457  0.9881107

 Al 
  0.4936253  0.2373311  0.2494097

 Al 
  0.7623731  0.0011905  0.2490755

 Al 
  0.7482402  0.2356802  0.9998800

 Al 
  0.0038303  0.5003057  0.0064366

 Al 
  0.0048104  0.7451945  0.2552547

 Al 
  0.2485211  0.5137815  0.2594748

 Al 
  0.2536384  0.7516163  0.9887369

 Al 
  0.0056717  0.9961524  0.5123286

 Al 
  0.9992451  0.2514257  0.7415994

 Al 
  0.2524702  0.0074959  0.7476251

 Al 
  0.2560789  0.2616145  0.4855490

 Al 
  0.0036731  0.4817224  0.4883855

 Al 
  0.9980224  0.7480323  0.7418667

 Al 
  0.2400475  0.5161106  0.7460930

 Al 
  0.2430523  0.7635600  0.5005804

 Al 
  0.4833709  0.4994926  0.0211141

 Al 
  0.5084575  0.7619586  0.2506175

 Al 
  0.7446748  0.5124412  0.2568846

 Al 
  0.7307411  0.7499455  0.9957007

 Al 
  0.5026979  0.0011707  0.5068697

 Al 
  0.5013811  0.2621095  0.7495409

 Al 
  0.7502054  0.9870947  0.7390030

 Al 
  0.7594575  0.2486622  0.4992810

 Al 
  0.5135142  0.5150970  0.5122593

 Al 
  0.5073536  0.7287511  0.7576729

 Al 
  0.7536904  0.5059490  0.7590998

 Al 
  0.7519244  0.7445584  0.5088226

