32 
charge = 0 
 Al 
  0.0029776  0.9709952  0.9997612

 Al 
  0.0086134  0.2470274  0.2429521

 Al 
  0.2447453  0.9916960  0.2448171

 Al 
  0.2325801  0.2713863  0.9947651

 Al 
  0.4904893  0.9918568  0.9880377

 Al 
  0.4938530  0.2372457  0.2494951

 Al 
  0.7619945  0.0006844  0.2490941

 Al 
  0.7488590  0.2356864  0.9996040

 Al 
  0.0040988  0.5006844  0.0062336

 Al 
  0.0047894  0.7447899  0.2554156

 Al 
  0.2486795  0.5138830  0.2591505

 Al 
  0.2538785  0.7516299  0.9887048

 Al 
  0.0061197  0.9961215  0.5119066

 Al 
  0.9988293  0.2511373  0.7417677

 Al 
  0.2523922  0.0075887  0.7477254

 Al 
  0.2559873  0.2614759  0.4850416

 Al 
  0.0031026  0.4817125  0.4881095

 Al 
  0.9974704  0.7480348  0.7422034

 Al 
  0.2392245  0.5159250  0.7459371

 Al 
  0.2429867  0.7640995  0.5005940

 Al 
  0.4837013  0.4993911  0.0212230

 Al 
  0.5081568  0.7617284  0.2509727

 Al 
  0.7442008  0.5123670  0.2567014

 Al 
  0.7310579  0.7498490  0.9964482

 Al 
  0.5028291  0.0015643  0.5074167

 Al 
  0.5020296  0.2613794  0.7497512

 Al 
  0.7503935  0.9867964  0.7392072

 Al 
  0.7596159  0.2485013  0.4990174

 Al 
  0.5133904  0.5152517  0.5118756

 Al 
  0.5068561  0.7287003  0.7580503

 Al 
  0.7536582  0.5062769  0.7591988

 Al 
  0.7524368  0.7445337  0.5088238

