32 
charge = 0 
 Al 
  0.0066111  0.9722167  0.9991114

 Al 
  0.0035865  0.2495978  0.2413829

 Al 
  0.2436030  0.9913767  0.2453740

 Al 
  0.2348300  0.2733850  0.9935560

 Al 
  0.4921699  0.9953294  0.9878249

 Al 
  0.4955015  0.2368558  0.2499208

 Al 
  0.7595268  0.9973875  0.2493639

 Al 
  0.7527090  0.2359153  0.9978801

 Al 
  0.0052646  0.5033587  0.0049255

 Al 
  0.0043649  0.7423766  0.2563264

 Al 
  0.2498107  0.5144683  0.2571098

 Al 
  0.2551668  0.7515915  0.9887790

 Al 
  0.0087718  0.9961858  0.5088659

 Al 
  0.9964284  0.2492983  0.7430498

 Al 
  0.2517809  0.0081865  0.7483330

 Al 
  0.2554366  0.2603386  0.4824427

 Al 
  0.9995099  0.4822571  0.4868051

 Al 
  0.9942292  0.7479197  0.7444953

 Al 
  0.2343052  0.5143520  0.7448060

 Al 
  0.2429867  0.7670412  0.5007846

 Al 
  0.4861529  0.4986993  0.0215014

 Al 
  0.5060727  0.7603126  0.2533563

 Al 
  0.7414311  0.5115576  0.2553401

 Al 
  0.7335862  0.7492067  0.0013069

 Al 
  0.5036384  0.0038439  0.5105948

 Al 
  0.5058908  0.2568821  0.7510655

 Al 
  0.7514640  0.9853126  0.7408396

 Al 
  0.7601876  0.2474853  0.4973343

 Al 
  0.5122011  0.5158148  0.5091196

 Al 
  0.5034751  0.7289874  0.7601666

 Al 
  0.7536558  0.5079068  0.7598089

 Al 
  0.7556495  0.7445535  0.5084290

