32 
charge = 0 
 Al 
  0.0100106  0.9744344  0.9982897

 Al 
  0.9979964  0.2521212  0.2396478

 Al 
  0.2425363  0.9914707  0.2459037

 Al 
  0.2378595  0.2743973  0.9922009

 Al 
  0.4943740  0.9994641  0.9880649

 Al 
  0.4977167  0.2366677  0.2501943

 Al 
  0.7567274  0.9936327  0.2498886

 Al 
  0.7568722  0.2364326  0.9960732

 Al 
  0.0056717  0.5067571  0.0034478

 Al 
  0.0034181  0.7400005  0.2571036

 Al 
  0.2511992  0.5150042  0.2549639

 Al 
  0.2562361  0.7513267  0.9893495

 Al 
  0.0112618  0.9967687  0.5049020

 Al 
  0.9941476  0.2472081  0.7447762

 Al 
  0.2509319  0.0088981  0.7489877

 Al 
  0.2547906  0.2587038  0.4805307

 Al 
  0.9956574  0.4838510  0.4861034

 Al 
  0.9911749  0.7476189  0.7473009

 Al 
  0.2293921  0.5120044  0.7432417

 Al 
  0.2436921  0.7693493  0.5012116

 Al 
  0.4895005  0.4978763  0.0210410

 Al 
  0.5034491  0.7588684  0.2562126

 Al 
  0.7387728  0.5100651  0.2535283

 Al 
  0.7371541  0.7484704  0.0067955

 Al 
  0.5045171  0.0059576  0.5136119

 Al 
  0.5097805  0.2522016  0.7524578

 Al 
  0.7524751  0.9843176  0.7432206

 Al 
  0.7600936  0.2463071  0.4954631

 Al 
  0.5102111  0.5157901  0.5056792

 Al 
  0.4994926  0.7302262  0.7620625

 Al 
  0.7538538  0.5089897  0.7604252

 Al 
  0.7590330  0.7448196  0.5073214

