32 
charge = 0 
 Al 
  0.0094661  0.9739926  0.9984345

 Al 
  0.9989592  0.2517066  0.2399498

 Al 
  0.2427070  0.9914237  0.2458208

 Al 
  0.2373051  0.2742971  0.9924323

 Al 
  0.4939694  0.9987377  0.9879882

 Al 
  0.4973071  0.2366838  0.2501609

 Al 
  0.7572125  0.9942837  0.2497847

 Al 
  0.7561606  0.2363286  0.9963752

 Al 
  0.0056569  0.5061445  0.0037040

 Al 
  0.0036112  0.7403891  0.2569860

 Al 
  0.2509554  0.5149201  0.2553228

 Al 
  0.2560727  0.7513885  0.9892171

 Al 
  0.0108683  0.9966314  0.5056235

 Al 
  0.9945176  0.2475731  0.7444619

 Al 
  0.2510891  0.0087706  0.7488751

 Al 
  0.2549094  0.2590057  0.4808017

 Al 
  0.9963108  0.4835144  0.4861777

 Al 
  0.9916625  0.7476783  0.7467997

 Al 
  0.2302040  0.5124462  0.7435362

 Al 
  0.2435238  0.7690201  0.5011212

 Al 
  0.4888805  0.4980199  0.0211759

 Al 
  0.5039243  0.7591060  0.2557064

 Al 
  0.7392047  0.5103646  0.2538587

 Al 
  0.7364932  0.7485978  0.0058475

 Al 
  0.5043661  0.0056222  0.5131244

 Al 
  0.5091320  0.2529850  0.7522239

 Al 
  0.7523093  0.9844488  0.7427726

 Al 
  0.7601554  0.2465163  0.4957861

 Al 
  0.5105972  0.5158346  0.5062893

 Al 
  0.5001869  0.7299577  0.7617643

 Al 
  0.7538154  0.5088486  0.7603250

 Al 
  0.7584662  0.7447602  0.5075553

