32 
charge = 0 
 Al 
  0.0077756  0.9728417  0.9988515

 Al 
  0.0017809  0.2504468  0.2408259

 Al 
  0.2432380  0.9913581  0.2455572

 Al 
  0.2357569  0.2738317  0.9931167

 Al 
  0.4928432  0.9966425  0.9878484

 Al 
  0.4961747  0.2367705  0.2500297

 Al 
  0.7586270  0.9961821  0.2495112

 Al 
  0.7540629  0.2360589  0.9972823

 Al 
  0.0054849  0.5044144  0.0044515

 Al 
  0.0041075  0.7415759  0.2566024

 Al 
  0.2502500  0.5146540  0.2564007

 Al 
  0.2555468  0.7515309  0.9889114

 Al 
  0.0096307  0.9963170  0.5076444

 Al 
  0.9956537  0.2486300  0.7435808

 Al 
  0.2515234  0.0084092  0.7485446

 Al 
  0.2552374  0.2598436  0.4817299

 Al 
  0.9982488  0.4826729  0.4865031

 Al 
  0.9931823  0.7478367  0.7453740

 Al 
  0.2326630  0.5136528  0.7443369

 Al 
  0.2431414  0.7678927  0.5008972

 Al 
  0.4871677  0.4984370  0.0214371

 Al 
  0.5052609  0.7598300  0.2542585

 Al 
  0.7405289  0.5111405  0.2547844

 Al 
  0.7346654  0.7489691  0.0030741

 Al 
  0.5039231  0.0045728  0.5116207

 Al 
  0.5071841  0.2553327  0.7515234

 Al 
  0.7518056  0.9849265  0.7415487

 Al 
  0.7602309  0.2471140  0.4967304

 Al 
  0.5116269  0.5158705  0.5080380

 Al 
  0.5022041  0.7292993  0.7608250

 Al 
  0.7537090  0.5083288  0.7600156

 Al 
  0.7567670  0.7446178  0.5081394

