32 
charge = 0 
 Al 
  0.0115663  0.9759220  0.9978541

 Al 
  0.9950708  0.2533352  0.2387159

 Al 
  0.2420487  0.9916873  0.2461240

 Al 
  0.2396144  0.2745248  0.9915078

 Al 
  0.4956685  0.0016967  0.9883917

 Al 
  0.4990335  0.2366517  0.2502661

 Al 
  0.7552497  0.9916502  0.2502351

 Al 
  0.7590231  0.2367804  0.9951797

 Al 
  0.0055987  0.5086766  0.0026632

 Al 
  0.0027684  0.7388743  0.2574217

 Al 
  0.2519467  0.5152369  0.2538958

 Al 
  0.2566841  0.7511051  0.9898371

 Al 
  0.0123558  0.9972736  0.5026199

 Al 
  0.9930721  0.2460794  0.7457601

 Al 
  0.2504344  0.0092953  0.7493379

 Al 
  0.2544045  0.2577496  0.4798376

 Al 
  0.9937008  0.4850156  0.4859858

 Al 
  0.9897938  0.7474271  0.7488639

 Al 
  0.2270061  0.5105799  0.7422801

 Al 
  0.2443097  0.7701772  0.5015284

 Al 
  0.4914880  0.4974345  0.0204953

 Al 
  0.5019454  0.7581729  0.2577793

 Al 
  0.7375291  0.5090515  0.2524850

 Al 
  0.7392592  0.7480867  0.0096765

 Al 
  0.5049762  0.0069006  0.5150166

 Al 
  0.5117086  0.2498861  0.7531508

 Al 
  0.7529640  0.9840008  0.7446772

 Al 
  0.7597941  0.2456512  0.4944854

 Al 
  0.5089340  0.5155648  0.5038043

 Al 
  0.4973788  0.7311631  0.7628954

 Al 
  0.7539652  0.5093188  0.7607161

 Al 
  0.7607086  0.7450287  0.5065121

