32 
charge = 0 
 Al 
  0.0125217  0.9770383  0.9975682

 Al 
  0.9931253  0.2541087  0.2380823

 Al 
  0.2417529  0.9918952  0.2462415

 Al 
  0.2408408  0.2744716  0.9910574

 Al 
  0.4965856  0.0032016  0.9886936

 Al 
  0.4999715  0.2366715  0.2502871

 Al 
  0.7542634  0.9903322  0.2504925

 Al 
  0.7604450  0.2370365  0.9946042

 Al 
  0.0054564  0.5099995  0.0021385

 Al 
  0.0022845  0.7381714  0.2576011

 Al 
  0.2524429  0.5153705  0.2532053

 Al 
  0.2569452  0.7509269  0.9902369

 Al 
  0.0129944  0.9976870  0.5010259

 Al 
  0.9923915  0.2453109  0.7464346

 Al 
  0.2500866  0.0095688  0.7495780

 Al 
  0.2541236  0.2570863  0.4794763

 Al 
  0.9924199  0.4859029  0.4859933

 Al 
  0.9889597  0.7472972  0.7499418

 Al 
  0.2254839  0.5095639  0.7415809

 Al 
  0.2448097  0.7705819  0.5017771

 Al 
  0.4929013  0.4971388  0.0200101

 Al 
  0.5008898  0.7577348  0.2588473

 Al 
  0.7367544  0.5082842  0.2517611

 Al 
  0.7407418  0.7478367  0.0115885

 Al 
  0.5052844  0.0074650  0.5158915

 Al 
  0.5129635  0.2484011  0.7535976

 Al 
  0.7532820  0.9838548  0.7457267

 Al 
  0.7595070  0.2451970  0.4938357

 Al 
  0.5079947  0.5153383  0.5025420

 Al 
  0.4959705  0.7318821  0.7633929

 Al 
  0.7540233  0.5094537  0.7608967

 Al 
  0.7617841  0.7451908  0.5058920

