32 
charge = 0 
 Al 
  0.0138013  0.9788711  0.9971660

 Al 
  0.9902864  0.2551940  0.2371393

 Al 
  0.2413680  0.9922937  0.2463554

 Al 
  0.2427194  0.2741894  0.9904250

 Al 
  0.4980112  0.0054267  0.9892740

 Al 
  0.5014405  0.2367420  0.2502797

 Al 
  0.7528167  0.9884127  0.2509096

 Al 
  0.7625068  0.2374462  0.9937936

 Al 
  0.0051186  0.5119920  0.0013638

 Al 
  0.0015074  0.7372160  0.2578140

 Al 
  0.2531620  0.5155302  0.2522214

 Al 
  0.2572756  0.7506225  0.9909435

 Al 
  0.0137790  0.9984048  0.4985805

 Al 
  0.9914423  0.2441562  0.7474407

 Al 
  0.2495594  0.0099809  0.7499443

 Al 
  0.2536718  0.2560851  0.4790877

 Al 
  0.9905735  0.4873595  0.4861269

 Al 
  0.9878682  0.7471165  0.7515692

 Al 
  0.2233528  0.5079798  0.7404596

 Al 
  0.2456698  0.7709482  0.5022041

 Al 
  0.4951030  0.4967031  0.0191055

 Al 
  0.4992612  0.7571358  0.2604438

 Al 
  0.7357062  0.5070157  0.2506670

 Al 
  0.7430263  0.7474803  0.0143718

 Al 
  0.5057361  0.0081877  0.5170759

 Al 
  0.5147666  0.2463207  0.7542275

 Al 
  0.7537436  0.9837298  0.7473875

 Al 
  0.7589600  0.2445052  0.4928914

 Al 
  0.5064848  0.5148904  0.5006918

 Al 
  0.4939174  0.7330726  0.7640327

 Al 
  0.7540716  0.5095280  0.7611356

 Al 
  0.7632927  0.7454643  0.5048686

