32 
charge = 0 
 Al 
  0.0133966  0.9782412  0.9972959

 Al 
  0.9912170  0.2548438  0.2374511

 Al 
  0.2414880  0.9921501  0.2463257

 Al 
  0.2420907  0.2743094  0.9906292

 Al 
  0.4975323  0.0046928  0.9890637

 Al 
  0.5009455  0.2367135  0.2502871

 Al 
  0.7532919  0.9890414  0.2507673

 Al 
  0.7618323  0.2373063  0.9940560

 Al 
  0.0052460  0.5113299  0.0016187

 Al 
  0.0017722  0.7375204  0.2577509

 Al 
  0.2529281  0.5154831  0.2525407

 Al 
  0.2571741  0.7507277  0.9906948

 Al 
  0.0135426  0.9981523  0.4993985

 Al 
  0.9917479  0.2445399  0.7471078

 Al 
  0.2497339  0.0098436  0.7498218

 Al 
  0.2538265  0.2564180  0.4791978

 Al 
  0.9911762  0.4868608  0.4860675

 Al 
  0.9882085  0.7471746  0.7510272

 Al 
  0.2240397  0.5085132  0.7408420

 Al 
  0.2453703  0.7708591  0.5020544

 Al 
  0.4943617  0.4968467  0.0194297

 Al 
  0.4998069  0.7573264  0.2599154

 Al 
  0.7360391  0.5074526  0.2510309

 Al 
  0.7422603  0.7475954  0.0134610

 Al 
  0.5055876  0.0079650  0.5166997

 Al 
  0.5141775  0.2469902  0.7540246

 Al 
  0.7535914  0.9837595  0.7468244

 Al 
  0.7591567  0.2447366  0.4932008

 Al 
  0.5069984  0.5150537  0.5012994

 Al 
  0.4945906  0.7326630  0.7638347

 Al 
  0.7540617  0.5095206  0.7610601

 Al 
  0.7628063  0.7453703  0.5052200

