32 
charge = 0 
 Al 
  0.0145389  0.9801767  0.9969222

 Al 
  0.9884857  0.2558586  0.2365279

 Al 
  0.2411601  0.9926130  0.2463826

 Al 
  0.2439731  0.2738763  0.9900426

 Al 
  0.4989765  0.0068549  0.9897443

 Al 
  0.5024417  0.2368125  0.2502512

 Al 
  0.7518947  0.9872036  0.2512041

 Al 
  0.7638038  0.2377308  0.9932961

 Al 
  0.0048215  0.5132927  0.0008688

 Al 
  0.0009690  0.7366591  0.2579167

 Al 
  0.2536087  0.5156044  0.2516113

 Al 
  0.2574526  0.7504010  0.9914781

 Al 
  0.0141726  0.9989394  0.4969469

 Al 
  0.9908656  0.2433988  0.7480855

 Al 
  0.2492129  0.0102507  0.7501906

 Al 
  0.2533538  0.2554317  0.4789280

 Al 
  0.9894151  0.4883855  0.4862915

 Al 
  0.9872605  0.7470162  0.7526397

 Al 
  0.2220596  0.5069044  0.7396750

 Al 
  0.2463009  0.7710274  0.5025197

 Al 
  0.4965967  0.4964259  0.0183914

 Al 
  0.4981647  0.7567843  0.2614833

 Al 
  0.7350960  0.5061049  0.2499530

 Al 
  0.7445572  0.7472625  0.0161304

 Al 
  0.5060245  0.0085738  0.5177677

 Al 
  0.5159027  0.2450621  0.7546124

 Al 
  0.7540406  0.9837025  0.7485298

 Al 
  0.7585293  0.2440436  0.4922949

 Al 
  0.5054292  0.5145228  0.4995174

 Al 
  0.4926179  0.7339191  0.7643805

 Al 
  0.7540654  0.5094946  0.7612705

 Al 
  0.7642072  0.7456661  0.5041421

