32 
charge = 0 
 Al 
  0.0148706  0.9808512  0.9968096

 Al 
  0.9876219  0.2561717  0.2362309

 Al 
  0.2410735  0.9927875  0.2463814

 Al 
  0.2445956  0.2736845  0.9898644

 Al 
  0.4994579  0.0075454  0.9900054

 Al 
  0.5029442  0.2368534  0.2502302

 Al 
  0.7514492  0.9866244  0.2513564

 Al 
  0.7644238  0.2378756  0.9930622

 Al 
  0.0046557  0.5139275  0.0006299

 Al 
  0.0006967  0.7364054  0.2579563

 Al 
  0.2538204  0.5156304  0.2513205

 Al 
  0.2575281  0.7502859  0.9917628

 Al 
  0.0143273  0.9992216  0.4961363

 Al 
  0.9905958  0.2430263  0.7483961

 Al 
  0.2490446  0.0103831  0.7503131

 Al 
  0.2531892  0.2551136  0.4788748

 Al 
  0.9888619  0.4889077  0.4863955

 Al 
  0.9869945  0.7469729  0.7531669

 Al 
  0.2214556  0.5063660  0.7392740

 Al 
  0.2466289  0.7710175  0.5026867

 Al 
  0.4973442  0.4962923  0.0180016

 Al 
  0.4976189  0.7566259  0.2619907

 Al 
  0.7348201  0.5056321  0.2496052

 Al 
  0.7453183  0.7471623  0.0169732

 Al 
  0.5061643  0.0087372  0.5180808

 Al 
  0.5164484  0.2444780  0.7547931

 Al 
  0.7541854  0.9837038  0.7491090

 Al 
  0.7582979  0.2438159  0.4920091

 Al 
  0.5048908  0.5143198  0.4989555

 Al 
  0.4919942  0.7343547  0.7645302

 Al 
  0.7540493  0.5094525  0.7613299

 Al 
  0.7646329  0.7457712  0.5037709

