32 
charge = 0 
 Al 
  0.0161551  0.9843894  0.9963566

 Al 
  0.9837261  0.2575306  0.2348745

 Al 
  0.2408309  0.9938048  0.2462056

 Al 
  0.2476177  0.2724061  0.9891293

 Al 
  0.5018229  0.0107111  0.9915536

 Al 
  0.5054304  0.2371071  0.2500705

 Al 
  0.7494023  0.9840540  0.2521583

 Al 
  0.7671848  0.2386194  0.9920388

 Al 
  0.0036879  0.5168766  0.9995372

 Al 
  0.9993466  0.7354166  0.2580380

 Al 
  0.2547213  0.5156317  0.2500210

 Al 
  0.2577905  0.7496931  0.9933493

 Al 
  0.0146701  0.0007524  0.4921984

 Al 
  0.9894436  0.2412442  0.7497847

 Al 
  0.2482612  0.0110106  0.7509220

 Al 
  0.2523316  0.2536310  0.4788600

 Al 
  0.9863682  0.4915450  0.4870860

 Al 
  0.9860391  0.7468653  0.7556631

 Al 
  0.2188926  0.5036966  0.7372036

 Al 
  0.2483602  0.7705002  0.5035976

 Al 
  0.5010433  0.4956871  0.0157455

 Al 
  0.4949520  0.7560158  0.2643669

 Al 
  0.7337496  0.5031422  0.2479902

 Al 
  0.7490124  0.7467464  0.0207552

 Al 
  0.5068078  0.0092310  0.5193035

 Al 
  0.5189347  0.2420474  0.7555616

 Al 
  0.7548785  0.9838263  0.7520259

 Al 
  0.7570071  0.2427132  0.4907282

 Al 
  0.5021360  0.5131219  0.4964432

 Al 
  0.4891800  0.7366059  0.7650265

 Al 
  0.7538117  0.5090218  0.7615291

 Al 
  0.7664051  0.7463541  0.5018737

