32 
charge = 0 
 Al 
  0.0164992  0.9858782  0.9962304

 Al 
  0.9823808  0.2579823  0.2344042

 Al 
  0.2408358  0.9942775  0.2460559

 Al 
  0.2487810  0.2717551  0.9889102

 Al 
  0.5027400  0.0118299  0.9922900

 Al 
  0.5064019  0.2372259  0.2499864

 Al 
  0.7486696  0.9831865  0.2525024

 Al 
  0.7681204  0.2389288  0.9916960

 Al 
  0.0032511  0.5179323  0.9991510

 Al 
  0.9988218  0.7351493  0.2580182

 Al 
  0.2550022  0.5155661  0.2495656

 Al 
  0.2578474  0.7494530  0.9940572

 Al 
  0.0146045  0.0014170  0.4906861

 Al 
  0.9890748  0.2405698  0.7502475

 Al 
  0.2479815  0.0112445  0.7511645

 Al 
  0.2519714  0.2530964  0.4789540

 Al 
  0.9854970  0.4925882  0.4874363

 Al 
  0.9858250  0.7468789  0.7565888

 Al 
  0.2180796  0.5026447  0.7363484

 Al 
  0.2490793  0.7700856  0.5039973

 Al 
  0.5024912  0.4954779  0.0146985

 Al 
  0.4939248  0.7558611  0.2652319

 Al 
  0.7334649  0.5020915  0.2474160

 Al 
  0.7504232  0.7466239  0.0220571

 Al 
  0.5070380  0.0092743  0.5196315

 Al 
  0.5198220  0.2413111  0.7558054

 Al 
  0.7551421  0.9839166  0.7531979

 Al 
  0.7564415  0.2422949  0.4902888

 Al 
  0.5010136  0.5125575  0.4955906

 Al 
  0.4882023  0.7375340  0.7651106

 Al 
  0.7536360  0.5087533  0.7615601

 Al 
  0.7669385  0.7466128  0.5011163

