32 
charge = 0 
 Al 
  0.0159472  0.9836605  0.9964321

 Al 
  0.9844451  0.2572855  0.2351270

 Al 
  0.2408507  0.9935832  0.2462638

 Al 
  0.2470261  0.2727018  0.9892555

 Al 
  0.5013588  0.0101195  0.9912108

 Al 
  0.5049391  0.2370514  0.2501077

 Al 
  0.7497871  0.9845230  0.2519925

 Al 
  0.7666799  0.2384684  0.9922244

 Al 
  0.0038971  0.5163210  0.9997401

 Al 
  0.9996126  0.7355774  0.2580367

 Al 
  0.2545629  0.5156502  0.2502611

 Al 
  0.2577521  0.7498131  0.9930115

 Al 
  0.0146589  0.0004307  0.4929669

 Al 
  0.9896478  0.2415895  0.7495322

 Al 
  0.2484085  0.0108905  0.7508007

 Al 
  0.2525085  0.2539119  0.4788327

 Al 
  0.9868299  0.4910190  0.4869264

 Al 
  0.9861814  0.7468714  0.7551841

 Al 
  0.2193443  0.5042263  0.7376256

 Al 
  0.2480050  0.7706636  0.5034058

 Al 
  0.5003119  0.4957985  0.0162381

 Al 
  0.4954755  0.7561123  0.2639152

 Al 
  0.7339228  0.5036558  0.2482934

 Al 
  0.7482909  0.7468170  0.0200584

 Al 
  0.5066866  0.0091753  0.5191055

 Al 
  0.5184694  0.2424657  0.7554255

 Al 
  0.7547436  0.9837892  0.7514405

 Al 
  0.7572793  0.2429286  0.4909646

 Al 
  0.5026929  0.5133867  0.4969036

 Al 
  0.4897010  0.7361480  0.7649597

 Al 
  0.7538822  0.5091369  0.7615031

 Al 
  0.7660995  0.7462304  0.5022548

