32 
charge = 0 
 Al 
  0.0166378  0.9866393  0.9961809

 Al 
  0.9817546  0.2581890  0.2341864

 Al 
  0.2408618  0.9945287  0.2459643

 Al 
  0.2493540  0.2714024  0.9888161

 Al 
  0.5031904  0.0123571  0.9926848

 Al 
  0.5068808  0.2372878  0.2499418

 Al 
  0.7483194  0.9827892  0.2526806

 Al 
  0.7685511  0.2390859  0.9915375

 Al 
  0.0030246  0.5184298  0.9989703

 Al 
  0.9985657  0.7350441  0.2579971

 Al 
  0.2551247  0.5155166  0.2493490

 Al 
  0.2578659  0.7493342  0.9944285

 Al 
  0.0145290  0.0017598  0.4899423

 Al 
  0.9889102  0.2402406  0.7504579

 Al 
  0.2478504  0.0113583  0.7512858

 Al 
  0.2517883  0.2528414  0.4790208

 Al 
  0.9850861  0.4931055  0.4876244

 Al 
  0.9857507  0.7468999  0.7570368

 Al 
  0.2177157  0.5021199  0.7359165

 Al 
  0.2494431  0.7698369  0.5042052

 Al 
  0.5032090  0.4953814  0.0141429

 Al 
  0.4934211  0.7558029  0.2656465

 Al 
  0.7333523  0.5015544  0.2471449

 Al 
  0.7511138  0.7465732  0.0226635

 Al 
  0.5071469  0.0092632  0.5197614

 Al 
  0.5202440  0.2409943  0.7559131

 Al 
  0.7552733  0.9839674  0.7537857

 Al 
  0.7561494  0.2420895  0.4900859

 Al 
  0.5004468  0.5122556  0.4951970

 Al 
  0.4877444  0.7380031  0.7651292

 Al 
  0.7535283  0.5086011  0.7615638

 Al 
  0.7671662  0.7467489  0.5007401

