32 
charge = 0 
 Al 
  0.0169707  0.9898272  0.9960707

 Al 
  0.9795518  0.2589043  0.2334389

 Al 
  0.2411465  0.9956425  0.2454755

 Al 
  0.2516113  0.2697960  0.9885451

 Al 
  0.5049552  0.0142505  0.9944619

 Al 
  0.5087595  0.2375526  0.2497463

 Al 
  0.7470212  0.9814328  0.2534441

 Al 
  0.7700349  0.2397493  0.9909844

 Al 
  0.0020766  0.5202230  0.9983157

 Al 
  0.9975843  0.7348003  0.2578437

 Al 
  0.2554960  0.5151960  0.2485372

 Al 
  0.2578882  0.7488614  0.9960386

 Al 
  0.0139325  0.0032139  0.4870279

 Al 
  0.9883768  0.2389647  0.7511447

 Al 
  0.2473826  0.0117890  0.7517759

 Al 
  0.2510272  0.2518922  0.4793995

 Al 
  0.9835874  0.4951401  0.4884709

 Al 
  0.9856703  0.7470843  0.7587273

 Al 
  0.2165425  0.5000111  0.7341394

 Al 
  0.2509108  0.7685696  0.5050876

 Al 
  0.5060504  0.4950448  0.0116789

 Al 
  0.4914546  0.7556990  0.2671836

 Al 
  0.7330961  0.4993206  0.2461772

 Al 
  0.7537808  0.7464383  0.0248045

 Al 
  0.5075479  0.0089934  0.5200572

 Al 
  0.5218059  0.2400500  0.7562559

 Al 
  0.7557794  0.9842000  0.7561643

 Al 
  0.7549267  0.2412975  0.4893718

 Al 
  0.4981424  0.5109066  0.4938345

 Al 
  0.4861108  0.7399349  0.7650512

 Al 
  0.7529602  0.5078672  0.7614883

 Al 
  0.7678147  0.7473442  0.4992612

