32 
charge = 0 
 Al 
  0.0168618  0.9951945  0.9962242

 Al 
  0.9771447  0.2596827  0.2327447

 Al 
  0.2421922  0.9977130  0.2443641

 Al 
  0.2550208  0.2667665  0.9884622

 Al 
  0.5075442  0.0164707  0.9978244

 Al 
  0.5114772  0.2380142  0.2494233

 Al 
  0.7453096  0.9801260  0.2548067

 Al 
  0.7715435  0.2409064  0.9903557

 Al 
  0.0005557  0.5222613  0.9975298

 Al 
  0.9962947  0.7349983  0.2574080

 Al 
  0.2556767  0.5142481  0.2473850

 Al 
  0.2577843  0.7481870  0.9989258

 Al 
  0.0121256  0.0056829  0.4826989

 Al 
  0.9879647  0.2371442  0.7516608

 Al 
  0.2468665  0.0123744  0.7525308

 Al 
  0.2497760  0.2506435  0.4802819

 Al 
  0.9816705  0.4981189  0.4900252

 Al 
  0.9861801  0.7477155  0.7609957

 Al 
  0.2155685  0.4966759  0.7312930

 Al 
  0.2531298  0.7658643  0.5066049

 Al 
  0.5103126  0.4947020  0.0071296

 Al 
  0.4886132  0.7559242  0.2691463

 Al 
  0.7332805  0.4956413  0.2450708

 Al 
  0.7575454  0.7464556  0.0272053

 Al 
  0.5080454  0.0078721  0.5198319

 Al 
  0.5238293  0.2395810  0.7564848

 Al 
  0.7564935  0.9845936  0.7599055

 Al 
  0.7529132  0.2401713  0.4886070

 Al 
  0.4944829  0.5083449  0.4923977

 Al 
  0.4842025  0.7430969  0.7644919

 Al 
  0.7516497  0.5064056  0.7610341

 Al 
  0.7679422  0.7484233  0.4971462

