32 
charge = 0 
 Al 
  0.0170029  0.9906663  0.9960670

 Al 
  0.9790753  0.2590577  0.2332855

 Al 
  0.2412665  0.9959519  0.2453220

 Al 
  0.2521732  0.2693443  0.9885043

 Al 
  0.5053896  0.0146725  0.9949594

 Al 
  0.5092198  0.2376244  0.2496956

 Al 
  0.7467180  0.9811532  0.2536508

 Al 
  0.7703468  0.2399250  0.9908631

 Al 
  0.0018304  0.5206190  0.9981696

 Al 
  0.9973529  0.7347854  0.2577867

 Al 
  0.2555591  0.5150809  0.2483441

 Al 
  0.2578820  0.7487463  0.9964767

 Al 
  0.0137097  0.0035988  0.4863088

 Al 
  0.9882766  0.2386540  0.7512759

 Al 
  0.2472798  0.0118917  0.7518997

 Al 
  0.2508279  0.2516719  0.4795208

 Al 
  0.9832446  0.4956413  0.4887048

 Al 
  0.9857024  0.7471586  0.7591258

 Al 
  0.2163160  0.4994753  0.7336815

 Al 
  0.2512809  0.7681860  0.5053228

 Al 
  0.5067571  0.4949730  0.0109982

 Al 
  0.4909745  0.7557052  0.2675387

 Al 
  0.7330788  0.4987377  0.2459631

 Al 
  0.7544268  0.7464222  0.0252698

 Al 
  0.5076395  0.0088684  0.5200757

 Al 
  0.5221672  0.2398941  0.7563178

 Al 
  0.7559019  0.9842632  0.7567695

 Al 
  0.7546062  0.2411044  0.4892184

 Al 
  0.4975521  0.5105292  0.4935461

 Al 
  0.4857495  0.7404349  0.7649955

 Al 
  0.7527820  0.5076543  0.7614437

 Al 
  0.7679100  0.7475075  0.4988998

