32 
charge = 0 
 Al 
  0.0167752  0.9961784  0.9962947

 Al 
  0.9768526  0.2597817  0.2326877

 Al 
  0.2424496  0.9981152  0.2441327

 Al 
  0.2556074  0.2661824  0.9884894

 Al 
  0.5079761  0.0167677  0.9984803

 Al 
  0.5119190  0.2381008  0.2493676

 Al 
  0.7450448  0.9799973  0.2550653

 Al 
  0.7717081  0.2411279  0.9902728

 Al 
  0.0002958  0.5225137  0.9974197

 Al 
  0.9961091  0.7351022  0.2573128

 Al 
  0.2556594  0.5140216  0.2471895

 Al 
  0.2577521  0.7480805  0.9994740

 Al 
  0.0117111  0.0061346  0.4819662

 Al 
  0.9879437  0.2368497  0.7516781

 Al 
  0.2468046  0.0124635  0.7526595

 Al 
  0.2495520  0.2504505  0.4804651

 Al 
  0.9813784  0.4986115  0.4903198

 Al 
  0.9863423  0.7478689  0.7613447

 Al 
  0.2154955  0.4960819  0.7307930

 Al 
  0.2534961  0.7653173  0.5068846

 Al 
  0.5110329  0.4946661  0.0062534

 Al 
  0.4881479  0.7560059  0.2694347

 Al 
  0.7333783  0.4949817  0.2449285

 Al 
  0.7581481  0.7464878  0.0275147

 Al 
  0.5081147  0.0075949  0.5197156

 Al 
  0.5241337  0.2396107  0.7564861

 Al 
  0.7566061  0.9846592  0.7605614

 Al 
  0.7525543  0.2399906  0.4885179

 Al 
  0.4938407  0.5078400  0.4922256

 Al 
  0.4839439  0.7436686  0.7643483

 Al 
  0.7513725  0.5061185  0.7609079

 Al 
  0.7678556  0.7486300  0.4968096

