32 
charge = 0 
 Al 
  0.0170053  0.9924063  0.9960930

 Al 
  0.9782115  0.2593337  0.2330219

 Al 
  0.2415672  0.9966103  0.2449780

 Al 
  0.2533006  0.2683803  0.9884535

 Al 
  0.5062534  0.0154534  0.9960262

 Al 
  0.5101319  0.2377729  0.2495879

 Al 
  0.7461351  0.9806668  0.2540864

 Al 
  0.7708975  0.2402963  0.9906416

 Al 
  0.0013279  0.5213455  0.9978949

 Al 
  0.9969073  0.7348114  0.2576556

 Al 
  0.2556458  0.5148037  0.2479617

 Al 
  0.2578560  0.7485174  0.9974011

 Al 
  0.0131726  0.0043995  0.4848708

 Al 
  0.9881120  0.2380427  0.7514863

 Al 
  0.2470942  0.0120910  0.7521496

 Al 
  0.2504208  0.2512475  0.4797956

 Al 
  0.9825887  0.4966375  0.4892035

 Al 
  0.9858299  0.7473405  0.7598993

 Al 
  0.2159410  0.4983837  0.7327471

 Al 
  0.2520209  0.7673383  0.5058141

 Al 
  0.5081729  0.4948468  0.0095478

 Al 
  0.4900228  0.7557559  0.2682144

 Al 
  0.7331023  0.4975373  0.2455708

 Al 
  0.7556953  0.7464123  0.0261225

 Al 
  0.5078127  0.0085454  0.5200448

 Al 
  0.5228603  0.2396763  0.7564155

 Al 
  0.7561445  0.9843943  0.7579996

 Al 
  0.7539478  0.2407257  0.4889424

 Al 
  0.4963517  0.5097186  0.4930276

 Al 
  0.4850787  0.7414645  0.7648384

 Al 
  0.7523786  0.5071915  0.7613212

 Al 
  0.7680127  0.7478516  0.4981857

