32 
charge = 0 
 Al 
  0.0162368  0.0004047  0.9967341

 Al 
  0.9760334  0.2600973  0.2326605

 Al 
  0.2437466  0.9999109  0.2430771

 Al 
  0.2580318  0.2636095  0.9887233

 Al 
  0.5097161  0.0177231  0.0013997

 Al 
  0.5136454  0.2384870  0.2491436

 Al 
  0.7440424  0.9797733  0.2562064

 Al 
  0.7721016  0.2421266  0.9900005

 Al 
  0.9992488  0.5232303  0.9970336

 Al 
  0.9954804  0.7357433  0.2568722

 Al 
  0.2554366  0.5128657  0.2463653

 Al 
  0.2575801  0.7476882  0.0018836

 Al 
  0.0097087  0.0080578  0.4789775

 Al 
  0.9880006  0.2357037  0.7515135

 Al 
  0.2466375  0.0127840  0.7531743

 Al 
  0.2486040  0.2497042  0.4812905

 Al 
  0.9802745  0.5005656  0.4916118

 Al 
  0.9872246  0.7486436  0.7626504

 Al 
  0.2154658  0.4935585  0.7287251

 Al 
  0.2549168  0.7628570  0.5080875

 Al 
  0.5139535  0.4945956  0.0023823

 Al 
  0.4863138  0.7564452  0.2704594

 Al 
  0.7339600  0.4922120  0.2444904

 Al 
  0.7604698  0.7467093  0.0284738

 Al 
  0.5083461  0.0062113  0.5190151

 Al 
  0.5252512  0.2400327  0.7563673

 Al 
  0.7570182  0.9849141  0.7632914

 Al 
  0.7510544  0.2392877  0.4882902

 Al 
  0.4911613  0.5055567  0.4917356

 Al 
  0.4830899  0.7461227  0.7636268

 Al 
  0.7500941  0.5048451  0.7602087

 Al 
  0.7671551  0.7495359  0.4955324

