32 
charge = 0 
 Al 
  0.0148879  0.0075157  0.9979320

 Al 
  0.9760321  0.2603361  0.2333251

 Al 
  0.2464940  0.0031694  0.2411935

 Al 
  0.2618917  0.2591382  0.9894832

 Al 
  0.5123385  0.0183419  0.0065591

 Al 
  0.5159683  0.2392109  0.2488416

 Al 
  0.7427268  0.9803921  0.2581729

 Al 
  0.7718158  0.2440052  0.9897988

 Al 
  0.9977798  0.5232130  0.9966116

 Al 
  0.9950324  0.7374251  0.2560900

 Al 
  0.2546062  0.5102916  0.2449730

 Al 
  0.2572001  0.7472576  0.0060801

 Al 
  0.0057485  0.0112098  0.4743998

 Al 
  0.9885402  0.2341790  0.7504604

 Al 
  0.2466672  0.0130885  0.7539008

 Al 
  0.2470472  0.2486337  0.4827558

 Al 
  0.9787944  0.5033823  0.4938345

 Al 
  0.9892864  0.7503193  0.7642406

 Al 
  0.2162356  0.4893235  0.7255557

 Al 
  0.2567088  0.7584711  0.5101035

 Al 
  0.5183308  0.4947577  0.9956128

 Al 
  0.4837582  0.7573783  0.2715187

 Al 
  0.7353720  0.4878286  0.2442664

 Al 
  0.7635105  0.7473677  0.0290085

 Al 
  0.5084872  0.0033464  0.5172838

 Al 
  0.5265371  0.2414918  0.7557547

 Al 
  0.7574477  0.9852247  0.7676241

 Al 
  0.7486634  0.2383669  0.4884238

 Al 
  0.4869375  0.5013143  0.4916031

 Al 
  0.4824192  0.7502884  0.7621801

 Al 
  0.7477662  0.5026385  0.7584488

 Al 
  0.7649696  0.7510952  0.4939644

