32 
charge = 0 
 Al 
  0.0143211  0.0099847  0.9984803

 Al 
  0.9763997  0.2603559  0.2337496

 Al 
  0.2475855  0.0043711  0.2405401

 Al 
  0.2631961  0.2575665  0.9898408

 Al 
  0.5131850  0.0182949  0.0083907

 Al 
  0.5166093  0.2394968  0.2487600

 Al 
  0.7423630  0.9808648  0.2588535

 Al 
  0.7714791  0.2447267  0.9897963

 Al 
  0.9973590  0.5228664  0.9965113

 Al 
  0.9950559  0.7381701  0.2558240

 Al 
  0.2541966  0.5092112  0.2444706

 Al 
  0.2570467  0.7471796  0.0075677

 Al 
  0.0042461  0.0122729  0.4729184

 Al 
  0.9888347  0.2337632  0.7498812

 Al 
  0.2467588  0.0131194  0.7541087

 Al 
  0.2465113  0.2482810  0.4832694

 Al 
  0.9783550  0.5042473  0.4946117

 Al 
  0.9901564  0.7510012  0.7646342

 Al 
  0.2167059  0.4878348  0.7245607

 Al 
  0.2571395  0.7569056  0.5107977

 Al 
  0.5197069  0.4948938  0.9932219

 Al 
  0.4830132  0.7577224  0.2717093

 Al 
  0.7359574  0.4864066  0.2443134

 Al 
  0.7643285  0.7476759  0.0289255

 Al 
  0.5084587  0.0022338  0.5165561

 Al 
  0.5268205  0.2421452  0.7554255

 Al 
  0.7575132  0.9852965  0.7690609

 Al 
  0.7478689  0.2381231  0.4886206

 Al 
  0.4855502  0.4997228  0.4917170

 Al 
  0.4823845  0.7517611  0.7616418

 Al 
  0.7469457  0.5018724  0.7576481

 Al 
  0.7639461  0.7516336  0.4935882

