32 
charge = 0 
 Al 
  0.0140216  0.0112111  0.9987798

 Al 
  0.9766546  0.2603572  0.2339996

 Al 
  0.2481523  0.0049837  0.2402183

 Al 
  0.2638409  0.2567831  0.9900351

 Al 
  0.5135959  0.0182206  0.0093065

 Al 
  0.5168927  0.2396490  0.2487253

 Al 
  0.7421984  0.9811482  0.2591889

 Al 
  0.7712687  0.2451005  0.9898087

 Al 
  0.9971672  0.5226288  0.9964680

 Al 
  0.9951042  0.7385711  0.2556953

 Al 
  0.2539701  0.5086332  0.2442156

 Al 
  0.2569675  0.7471548  0.0083139

 Al 
  0.0034776  0.0127939  0.4722019

 Al 
  0.9890005  0.2335788  0.7495520

 Al 
  0.2468195  0.0131182  0.7542028

 Al 
  0.2462452  0.2481041  0.4835243

 Al 
  0.9781484  0.5046582  0.4949990

 Al 
  0.9906193  0.7513601  0.7648012

 Al 
  0.2169781  0.4870885  0.7240904

 Al 
  0.2573128  0.7561197  0.5111418

 Al 
  0.5203641  0.4949780  0.9920289

 Al 
  0.4826692  0.7578919  0.2717687

 Al 
  0.7362643  0.4857222  0.2443604

 Al 
  0.7646886  0.7478454  0.0288364

 Al 
  0.5084278  0.0016608  0.5161725

 Al 
  0.5269281  0.2424917  0.7552386

 Al 
  0.7575281  0.9853250  0.7697626

 Al 
  0.7474803  0.2380179  0.4887481

 Al 
  0.4848757  0.4989072  0.4918011

 Al 
  0.4824056  0.7525011  0.7613707

 Al 
  0.7465410  0.5014937  0.7572076

 Al 
  0.7633880  0.7518997  0.4934360

