32 
charge = 0 
 Al 
  0.0156366  0.0038699  0.9972477

 Al 
  0.9758316  0.2602520  0.2328783

 Al 
  0.2450077  0.0014616  0.2421662

 Al 
  0.2599376  0.2614462  0.9890414

 Al 
  0.5110341  0.0181674  0.0038847

 Al 
  0.5148656  0.2388236  0.2489840

 Al 
  0.7433506  0.9799317  0.2571618

 Al 
  0.7720954  0.2430078  0.9898656

 Al 
  0.9984865  0.5234048  0.9967997

 Al 
  0.9951686  0.7364759  0.2564910

 Al 
  0.2550988  0.5117098  0.2456945

 Al 
  0.2574068  0.7474420  0.0039095

 Al 
  0.0078560  0.0096084  0.4766856

 Al 
  0.9882023  0.2349005  0.7511150

 Al 
  0.2466078  0.0129709  0.7535518

 Al 
  0.2478405  0.2491634  0.4819972

 Al 
  0.9795060  0.5020036  0.4926897

 Al 
  0.9881454  0.7494060  0.7635129

 Al 
  0.2157269  0.4914992  0.7271286

 Al 
  0.2558871  0.7607482  0.5090726

 Al 
  0.5161638  0.4946315  0.9991127

 Al 
  0.4849908  0.7568821  0.2710720

 Al 
  0.7345911  0.4900277  0.2443097

 Al 
  0.7620798  0.7469878  0.0288847

 Al 
  0.5084538  0.0048859  0.5182441

 Al 
  0.5259653  0.2406515  0.7561309

 Al 
  0.7572694  0.9850837  0.7654398

 Al 
  0.7498701  0.2387988  0.4882766

 Al 
  0.4890612  0.5035518  0.4915784

 Al 
  0.4826543  0.7481412  0.7629474

 Al 
  0.7489753  0.5037746  0.7594463

 Al 
  0.7662356  0.7502933  0.4946785

