32 
charge = 0 
 Al 
  0.0111715  0.0210547  0.0019937

 Al 
  0.9807510  0.2601839  0.2370984

 Al 
  0.2533377  0.0103708  0.2379548

 Al 
  0.2690585  0.2505346  0.9920920

 Al 
  0.5167294  0.0160970  0.0166254

 Al 
  0.5181179  0.2412739  0.2486313

 Al 
  0.7413767  0.9847990  0.2616467

 Al 
  0.7683964  0.2486288  0.9903396

 Al 
  0.9961697  0.5187689  0.9962267

 Al 
  0.9965596  0.7426922  0.2548438

 Al 
  0.2514764  0.5027499  0.2419695

 Al 
  0.2562200  0.7474321  0.0144114

 Al 
  0.9968455  0.0167120  0.4670474

 Al 
  0.9907925  0.2327583  0.7456549

 Al 
  0.2477155  0.0126021  0.7546631

 Al 
  0.2440547  0.2464371  0.4854710

 Al 
  0.9766942  0.5074922  0.4980508

 Al 
  0.9952527  0.7548413  0.7653185

 Al 
  0.2202713  0.4808289  0.7211438

 Al 
  0.2573882  0.7496461  0.5138100

 Al 
  0.5247785  0.4961636  0.9825343

 Al 
  0.4806953  0.7590602  0.2712403

 Al 
  0.7391676  0.4810207  0.2453443

 Al 
  0.7662579  0.7497092  0.0267858

 Al 
  0.5075962  0.9966524  0.5125278

 Al 
  0.5267536  0.2455992  0.7530308

 Al 
  0.7570789  0.9853881  0.7750248

 Al 
  0.7445176  0.2376875  0.4907269

 Al 
  0.4799552  0.4915784  0.4931303

 Al 
  0.4837236  0.7587335  0.7592149

 Al 
  0.7436191  0.4986077  0.7522103

 Al 
  0.7574786  0.7538983  0.4932355

