32 
charge = 0 
 Al 
  0.0127655  0.0159311  0.0001151

 Al 
  0.9781088  0.2603064  0.2352136

 Al 
  0.2504876  0.0074452  0.2390401

 Al 
  0.2663197  0.2537696  0.9909014

 Al 
  0.5151292  0.0175882  0.0128323

 Al 
  0.5177504  0.2403148  0.2486313

 Al 
  0.7416811  0.9825627  0.2604376

 Al 
  0.7701785  0.2466561  0.9899522

 Al 
  0.9965571  0.5212613  0.9963343

 Al 
  0.9955349  0.7403210  0.2552361

 Al 
  0.2529429  0.5061358  0.2431922

 Al 
  0.2566358  0.7471685  0.0112086

 Al 
  0.0004034  0.0147431  0.4695795

 Al 
  0.9897517  0.2330219  0.7479964

 Al 
  0.2471499  0.0130018  0.7544985

 Al 
  0.2452143  0.2473887  0.4844872

 Al 
  0.9774095  0.5061210  0.4964804

 Al 
  0.9926080  0.7528786  0.7652468

 Al 
  0.2182788  0.4841642  0.7224568

 Al 
  0.2576865  0.7530605  0.5124462

 Al 
  0.5226994  0.4954173  0.9874437

 Al 
  0.4815294  0.7585169  0.2717687

 Al 
  0.7375489  0.4832595  0.2446834

 Al 
  0.7657665  0.7486115  0.0281743

 Al 
  0.5081840  0.9993490  0.5145612

 Al 
  0.5271125  0.2439223  0.7543575

 Al 
  0.7574563  0.9853943  0.7723788

 Al 
  0.7460237  0.2377259  0.4894547

 Al 
  0.4823944  0.4955943  0.4922875

 Al 
  0.4827484  0.7554081  0.7603237

 Al 
  0.7450374  0.5000656  0.7551978

 Al 
  0.7609066  0.7528971  0.4930833

