32 
charge = 0 
 Al 
  0.0118039  0.0191302  0.0012239

 Al 
  0.9796000  0.2602346  0.2363064

 Al 
  0.2522227  0.0092335  0.2383261

 Al 
  0.2680177  0.2517400  0.9916081

 Al 
  0.5161341  0.0167813  0.0152109

 Al 
  0.5180672  0.2408730  0.2486152

 Al 
  0.7414522  0.9838560  0.2612197

 Al 
  0.7691525  0.2478429  0.9901577

 Al 
  0.9962749  0.5198555  0.9962650

 Al 
  0.9960918  0.7417306  0.2549725

 Al 
  0.2520791  0.5041260  0.2424459

 Al 
  0.2563846  0.7472947  0.0132011

 Al 
  0.9982105  0.0159967  0.4679484

 Al 
  0.9903718  0.2328065  0.7466314

 Al 
  0.2474729  0.0127939  0.7546260

 Al 
  0.2444978  0.2468281  0.4851121

 Al 
  0.9769529  0.5070046  0.4974692

 Al 
  0.9941847  0.7540567  0.7653520

 Al 
  0.2194359  0.4821086  0.7215621

 Al 
  0.2576098  0.7509430  0.5133075

 Al 
  0.5240694  0.4958418  0.9843622

 Al 
  0.4809477  0.7588820  0.2715175

 Al 
  0.7385266  0.4817930  0.2450510

 Al 
  0.7661725  0.7492562  0.0274046

 Al 
  0.5078697  0.9976882  0.5133323

 Al 
  0.5269776  0.2449594  0.7535852

 Al 
  0.7572657  0.9853992  0.7740607

 Al 
  0.7450720  0.2376578  0.4901713

 Al 
  0.4808314  0.4931513  0.4927714

 Al 
  0.4832644  0.7574563  0.7596233

 Al 
  0.7441104  0.4991387  0.7534615

 Al 
  0.7588746  0.7535370  0.4930981

