32 
charge = 0 
 Al 
  0.0121244  0.0181043  0.0008465

 Al 
  0.9790691  0.2602594  0.2359277

 Al 
  0.2516509  0.0086468  0.2385439

 Al 
  0.2674694  0.2523885  0.9913692

 Al 
  0.5158136  0.0170796  0.0144510

 Al 
  0.5179942  0.2406812  0.2486152

 Al 
  0.7415128  0.9834068  0.2609772

 Al 
  0.7695102  0.2474481  0.9900797

 Al 
  0.9963517  0.5203567  0.9962861

 Al 
  0.9958863  0.7412554  0.2550517

 Al 
  0.2523736  0.5048055  0.2426910

 Al 
  0.2564675  0.7472415  0.0125588

 Al 
  0.9989233  0.0156020  0.4684558

 Al 
  0.9901626  0.2328598  0.7471016

 Al 
  0.2473603  0.0128744  0.7545926

 Al 
  0.2447305  0.2470187  0.4849154

 Al 
  0.9770964  0.5067311  0.4971548

 Al 
  0.9936538  0.7536632  0.7653383

 Al 
  0.2190362  0.4827768  0.7218257

 Al 
  0.2576692  0.7516274  0.5130340

 Al 
  0.5236523  0.4956920  0.9853460

 Al 
  0.4811148  0.7587731  0.2716239

 Al 
  0.7382011  0.4822410  0.2449186

 Al 
  0.7660759  0.7490359  0.0276830

 Al 
  0.5079872  0.9982290  0.5137407

 Al 
  0.5270494  0.2446228  0.7538513

 Al 
  0.7573412  0.9854017  0.7735310

 Al 
  0.7453740  0.2376652  0.4899163

 Al 
  0.4813202  0.4939557  0.4926019

 Al 
  0.4830689  0.7567905  0.7598460

 Al 
  0.7443963  0.4994320  0.7540592

 Al 
  0.7595614  0.7533365  0.4930672

