32 
charge = 0 
 Al 
  0.0093523  0.0257760  0.0043921

 Al 
  0.9847891  0.2600799  0.2396948

 Al 
  0.2563994  0.0134535  0.2373905

 Al 
  0.2717625  0.2476845  0.9935486

 Al 
  0.5181810  0.0134127  0.0199730

 Al 
  0.5175363  0.2426365  0.2488157

 Al 
  0.7414918  0.9879053  0.2624128

 Al 
  0.7658915  0.2509158  0.9910933

 Al 
  0.9962230  0.5149485  0.9961079

 Al 
  0.9983281  0.7456067  0.2546965

 Al 
  0.2495928  0.4985174  0.2406651

 Al 
  0.2557423  0.7480867  0.0174385

 Al 
  0.9933097  0.0182330  0.4652888

 Al 
  0.9920214  0.2330231  0.7424942

 Al 
  0.2485360  0.0118063  0.7545641

 Al 
  0.2428803  0.2451265  0.4862631

 Al 
  0.9761274  0.5085144  0.4993862

 Al 
  0.9984790  0.7571444  0.7648012

 Al 
  0.2230372  0.4774479  0.7207712

 Al 
  0.2559712  0.7463121  0.5149374

 Al 
  0.5259232  0.4972947  0.9782338

 Al 
  0.4805430  0.7592260  0.2699334

 Al 
  0.7410116  0.4797126  0.2464173

 Al 
  0.7657282  0.7511361  0.0245520

 Al 
  0.5064588  0.9939904  0.5102223

 Al 
  0.5254529  0.2471536  0.7512363

 Al 
  0.7562683  0.9853275  0.7771373

 Al 
  0.7432268  0.2381281  0.4927120

 Al 
  0.4781187  0.4871888  0.4942775

 Al 
  0.4855948  0.7621145  0.7583065

 Al 
  0.7428060  0.4974506  0.7480521

 Al 
  0.7532177  0.7546446  0.4941847

