32 
charge = 0 
 Al 
  0.0096468  0.0250941  0.0039850

 Al 
  0.9840627  0.2600886  0.2392419

 Al 
  0.2559193  0.0129758  0.2374264

 Al 
  0.2713504  0.2480805  0.9933073

 Al 
  0.5179706  0.0139238  0.0195077

 Al 
  0.5177070  0.2423915  0.2487723

 Al 
  0.7414385  0.9873620  0.2623397

 Al 
  0.7663296  0.2505433  0.9909472

 Al 
  0.9961784  0.5156366  0.9961301

 Al 
  0.9980001  0.7451191  0.2546965

 Al 
  0.2499121  0.4992327  0.2408680

 Al 
  0.2558203  0.7479531  0.0169954

 Al 
  0.9938407  0.0180449  0.4654831

 Al 
  0.9918234  0.2329402  0.7430412

 Al 
  0.2483899  0.0119598  0.7546013

 Al 
  0.2430610  0.2453629  0.4861591

 Al 
  0.9762004  0.5083845  0.4992067

 Al 
  0.9979395  0.7567670  0.7649275

 Al 
  0.2225496  0.4779664  0.7207415

 Al 
  0.2562819  0.7468133  0.5147889

 Al 
  0.5258329  0.4970893  0.9788278

 Al 
  0.4805072  0.7592384  0.2701970

 Al 
  0.7407121  0.4798277  0.2462205

 Al 
  0.7658903  0.7508935  0.0249579

 Al 
  0.5066828  0.9943852  0.5105960

 Al 
  0.5257363  0.2469370  0.7515470

 Al 
  0.7564267  0.9853349  0.7768650

 Al 
  0.7434050  0.2380192  0.4923506

 Al 
  0.4783451  0.4878867  0.4940832

 Al 
  0.4852334  0.7615960  0.7584241

 Al 
  0.7428716  0.4975991  0.7487872

 Al 
  0.7539317  0.7545555  0.4939755

