32 
charge = 0 
 Al 
  0.0084847  0.0275877  0.0056272

 Al 
  0.9870873  0.2600861  0.2410920

 Al 
  0.2577657  0.0148062  0.2374239

 Al 
  0.2729184  0.2466759  0.9942627

 Al 
  0.5187367  0.0117346  0.0211574

 Al 
  0.5168556  0.2434224  0.2489802

 Al 
  0.7417232  0.9895933  0.2625043

 Al 
  0.7645290  0.2520197  0.9915833

 Al 
  0.9964333  0.5127692  0.9960225

 Al 
  0.9993825  0.7470794  0.2547535

 Al 
  0.2486251  0.4963442  0.2400822

 Al 
  0.2555072  0.7485422  0.0186303

 Al 
  0.9918544  0.0186426  0.4649473

 Al 
  0.9925920  0.2333535  0.7408086

 Al 
  0.2489926  0.0113027  0.7544082

 Al 
  0.2423717  0.2443666  0.4865192

 Al 
  0.9759628  0.5088201  0.4998230

 Al 
  0.0001089  0.7582657  0.7643396

 Al 
  0.2245619  0.4759863  0.7210769

 Al 
  0.2548686  0.7449210  0.5152827

 Al 
  0.5259603  0.4979518  0.9767252

 Al 
  0.4807856  0.7590825  0.2690448

 Al 
  0.7418927  0.4796025  0.2470546

 Al 
  0.7650846  0.7518724  0.0232662

 Al 
  0.5057015  0.9929310  0.5091221

 Al 
  0.5244431  0.2476944  0.7502797

 Al 
  0.7557472  0.9853225  0.7777684

 Al 
  0.7427751  0.2385389  0.4938704

 Al 
  0.4776236  0.4851728  0.4948530

 Al 
  0.4867952  0.7635723  0.7580281

 Al 
  0.7427702  0.4971066  0.7457440

 Al 
  0.7510606  0.7548339  0.4949223

