32 
charge = 0 
 Al 
  0.0099451  0.0243726  0.0035815

 Al 
  0.9833560  0.2601010  0.2387976

 Al 
  0.2554279  0.0124833  0.2374845

 Al 
  0.2709247  0.2485075  0.9930659

 Al 
  0.5177491  0.0144089  0.0190052

 Al 
  0.5178494  0.2421539  0.2487327

 Al 
  0.7413989  0.9868286  0.2622444

 Al 
  0.7667603  0.2501658  0.9908086

 Al 
  0.9961475  0.5163061  0.9961524

 Al 
  0.9976833  0.7446315  0.2547065

 Al 
  0.2502302  0.4999431  0.2410784

 Al 
  0.2558995  0.7478306  0.0165289

 Al 
  0.9943938  0.0178308  0.4657170

 Al 
  0.9916217  0.2328721  0.7435808

 Al 
  0.2482488  0.0121058  0.7546310

 Al 
  0.2432466  0.2455906  0.4860440

 Al 
  0.9762821  0.5082397  0.4990100

 Al 
  0.9974011  0.7563871  0.7650376

 Al 
  0.2220744  0.4785023  0.7207490

 Al 
  0.2565640  0.7473355  0.5146255

 Al 
  0.5257029  0.4968912  0.9794713

 Al 
  0.4804960  0.7592347  0.2704421

 Al 
  0.7404101  0.4799837  0.2460299

 Al 
  0.7660252  0.7506522  0.0253515

 Al 
  0.5068920  0.9947998  0.5109722

 Al 
  0.5259925  0.2467019  0.7518539

 Al 
  0.7565764  0.9853448  0.7765618

 Al 
  0.7435969  0.2379239  0.4920004

 Al 
  0.4786013  0.4885971  0.4938902

 Al 
  0.4848918  0.7610601  0.7585565

 Al 
  0.7429657  0.4977637  0.7495050

 Al 
  0.7546446  0.7544515  0.4937862

