32 
charge = 0 
 Al 
  0.0102470  0.0236077  0.0031793

 Al 
  0.9826704  0.2601171  0.2383607

 Al 
  0.2549243  0.0119759  0.2375674

 Al 
  0.2704841  0.2489654  0.9928221

 Al 
  0.5175152  0.0148693  0.0184669

 Al 
  0.5179607  0.2419237  0.2486993

 Al 
  0.7413730  0.9863051  0.2621269

 Al 
  0.7671836  0.2497859  0.9906787

 Al 
  0.9961314  0.5169546  0.9961710

 Al 
  0.9973813  0.7441451  0.2547263

 Al 
  0.2505445  0.5006510  0.2412925

 Al 
  0.2559787  0.7477155  0.0160376

 Al 
  0.9949705  0.0175895  0.4659905

 Al 
  0.9914187  0.2328189  0.7441117

 Al 
  0.2481102  0.0122432  0.7546520

 Al 
  0.2434397  0.2458121  0.4859190

 Al 
  0.9763725  0.5080788  0.4987959

 Al 
  0.9968628  0.7560034  0.7651329

 Al 
  0.2216078  0.4790555  0.7207923

 Al 
  0.2568165  0.7478788  0.5144461

 Al 
  0.5255334  0.4966994  0.9801619

 Al 
  0.4805084  0.7592149  0.2706698

 Al 
  0.7401045  0.4801804  0.2458467

 Al 
  0.7661304  0.7504121  0.0257314

 Al 
  0.5070888  0.9952329  0.5113546

 Al 
  0.5262227  0.2464507  0.7521558

 Al 
  0.7567163  0.9853559  0.7762252

 Al 
  0.7438048  0.2378422  0.4916625

 Al 
  0.4788909  0.4893211  0.4936971

 Al 
  0.4845688  0.7605069  0.7587013

 Al 
  0.7430870  0.4979481  0.7502067

 Al 
  0.7553562  0.7543352  0.4936167

