32 
charge = 0 
 Al 
  0.0105515  0.0228009  0.0027808

 Al 
  0.9820071  0.2601369  0.2379313

 Al 
  0.2544082  0.0114549  0.2376739

 Al 
  0.2700262  0.2494567  0.9925796

 Al 
  0.5172665  0.0153049  0.0178902

 Al 
  0.5180437  0.2417009  0.2486709

 Al 
  0.7413593  0.9857928  0.2619883

 Al 
  0.7675969  0.2494035  0.9905574

 Al 
  0.9961289  0.5175821  0.9961908

 Al 
  0.9970917  0.7436600  0.2547547

 Al 
  0.2508589  0.5013551  0.2415128

 Al 
  0.2560579  0.7476115  0.0155203

 Al 
  0.9955720  0.0173234  0.4663024

 Al 
  0.9912121  0.2327818  0.7446352

 Al 
  0.2479741  0.0123719  0.7546644

 Al 
  0.2436377  0.2460262  0.4857816

 Al 
  0.9764702  0.5079006  0.4985644

 Al 
  0.9963257  0.7556185  0.7652121

 Al 
  0.2211524  0.4796272  0.7208727

 Al 
  0.2570380  0.7484444  0.5142493

 Al 
  0.5253230  0.4965138  0.9809032

 Al 
  0.4805455  0.7591790  0.2708789

 Al 
  0.7397963  0.4804193  0.2456710

 Al 
  0.7662046  0.7501757  0.0260977

 Al 
  0.5072707  0.9956871  0.5117408

 Al 
  0.5264257  0.2461821  0.7524528

 Al 
  0.7568474  0.9853671  0.7758576

 Al 
  0.7440263  0.2377766  0.4913383

 Al 
  0.4792127  0.4900587  0.4935053

 Al 
  0.4842669  0.7599352  0.7588597

 Al 
  0.7432355  0.4981486  0.7508910

 Al 
  0.7560665  0.7542040  0.4934669

