32 
charge = 0 
 Al 
  0.0054824  0.0316432  0.0103064

 Al 
  0.9967836  0.2606406  0.2466512

 Al 
  0.2618794  0.0186327  0.2393384

 Al 
  0.2763564  0.2450485  0.9966833

 Al 
  0.5198703  0.0038711  0.0229357

 Al 
  0.5123719  0.2470596  0.2499010

 Al 
  0.7434026  0.9966103  0.2612581

 Al 
  0.7588956  0.2558660  0.9939978

 Al 
  0.9981276  0.5034107  0.9953653

 Al 
  0.0039949  0.7527214  0.2556371

 Al 
  0.2450993  0.4880303  0.2383199

 Al 
  0.2545629  0.7509170  0.0213715

 Al 
  0.9880649  0.0180548  0.4669014

 Al 
  0.9943171  0.2354624  0.7342025

 Al 
  0.2509344  0.0090218  0.7533835

 Al 
  0.2409398  0.2408284  0.4870056

 Al 
  0.9762425  0.5090491  0.5002054

 Al 
  0.0063116  0.7622791  0.7617333

 Al 
  0.2311519  0.4715819  0.7249938

 Al 
  0.2488243  0.7408717  0.5152752

 Al 
  0.5232637  0.5008935  0.9743812

 Al 
  0.4833832  0.7570232  0.2646985

 Al 
  0.7449792  0.4820417  0.2499592

 Al 
  0.7611108  0.7545023  0.0178358

 Al 
  0.5017351  0.9907232  0.5051012

 Al 
  0.5185659  0.2482006  0.7465163

 Al 
  0.7534231  0.9859883  0.7776942

 Al 
  0.7419558  0.2409967  0.4989617

 Al 
  0.4779949  0.4786657  0.4966809

 Al 
  0.4926526  0.7677850  0.7579216

 Al 
  0.7444087  0.4969445  0.7360180

 Al 
  0.7429174  0.7546347  0.4987649

