32 
charge = 0 
 Al 
  0.0073610  0.0295072  0.0073103

 Al 
  0.9904101  0.2601839  0.2430474

 Al 
  0.2594278  0.0164138  0.2377952

 Al 
  0.2743045  0.2457255  0.9951896

 Al 
  0.5193171  0.0091642  0.0222600

 Al 
  0.5155673  0.2446030  0.2492637

 Al 
  0.7421935  0.9919905  0.2623298

 Al 
  0.7625984  0.2534553  0.9923531

 Al 
  0.9968888  0.5096022  0.9958579

 Al 
  0.0009393  0.7490780  0.2549589

 Al 
  0.2473219  0.4933741  0.2393718

 Al 
  0.2551866  0.7492810  0.0199173

 Al 
  0.9902047  0.0188209  0.4650599

 Al 
  0.9932936  0.2339699  0.7384634

 Al 
  0.2496510  0.0105391  0.7541062

 Al 
  0.2417640  0.2432169  0.4867519

 Al 
  0.9758836  0.5090540  0.5001794

 Al 
  0.0023217  0.7597409  0.7635414

 Al 
  0.2267672  0.4742253  0.7219952

 Al 
  0.2530135  0.7432837  0.5155153

 Al 
  0.5254826  0.4989270  0.9753205

 Al 
  0.4814217  0.7586295  0.2676427

 Al 
  0.7430412  0.4799874  0.2480088

 Al 
  0.7638991  0.7528600  0.0214074

 Al 
  0.5044775  0.9918110  0.5076729

 Al 
  0.5227031  0.2481536  0.7489481

 Al 
  0.7549589  0.9854054  0.7781805

 Al 
  0.7423395  0.2392703  0.4955794

 Al 
  0.4773699  0.4826419  0.4955856

 Al 
  0.4886689  0.7653086  0.7578288

 Al 
  0.7430734  0.4968653  0.7424162

 Al 
  0.7481449  0.7549119  0.4961363

