32 
charge = 0 
 Al 
  0.0057423  0.0314291  0.0098819

 Al 
  0.9958480  0.2605539  0.2461301

 Al 
  0.2615687  0.0183704  0.2390500

 Al 
  0.2760940  0.2450733  0.9964866

 Al 
  0.5198295  0.0046755  0.0229357

 Al 
  0.5128905  0.2466796  0.2498020

 Al 
  0.7432033  0.9959210  0.2614660

 Al 
  0.7594476  0.2555319  0.9937429

 Al 
  0.9979197  0.5043364  0.9954544

 Al 
  0.0035419  0.7521917  0.2555195

 Al 
  0.2454025  0.4887926  0.2384535

 Al 
  0.2546582  0.7506596  0.0212279

 Al 
  0.9883137  0.0182528  0.4665078

 Al 
  0.9941884  0.2352210  0.7348102

 Al 
  0.2507425  0.0092483  0.7534974

 Al 
  0.2410339  0.2411947  0.4869709

 Al 
  0.9761447  0.5090800  0.5002475

 Al 
  0.0057386  0.7619227  0.7620155

 Al 
  0.2304861  0.4719259  0.7244604

 Al 
  0.2494827  0.7411861  0.5153619

 Al 
  0.5236820  0.5005953  0.9744047

 Al 
  0.4830404  0.7573189  0.2651478

 Al 
  0.7447094  0.4816469  0.2496621

 Al 
  0.7615502  0.7542832  0.0183642

 Al 
  0.5021707  0.9908061  0.5054737

 Al 
  0.5192379  0.2482538  0.7468653

 Al 
  0.7536471  0.9858596  0.7778600

 Al 
  0.7419855  0.2407208  0.4984580

 Al 
  0.4778266  0.4791904  0.4965447

 Al 
  0.4920375  0.7674793  0.7578771

 Al 
  0.7441674  0.4968999  0.7369598

 Al 
  0.7436686  0.7547015  0.4983602

