32 
charge = 0 
 Al 
  0.0042424  0.0322645  0.0123360

 Al 
  0.0013997  0.2611641  0.2491943

 Al 
  0.2632011  0.0195980  0.2410660

 Al 
  0.2774813  0.2452465  0.9975397

 Al 
  0.5198505  0.9997562  0.0224717

 Al 
  0.5095899  0.2490545  0.2504096

 Al 
  0.7444854  0.0001312  0.2599983

 Al 
  0.7560740  0.2574489  0.9953208

 Al 
  0.9992637  0.4986981  0.9948072

 Al 
  0.0062472  0.7553661  0.2562831

 Al 
  0.2437441  0.4843696  0.2377766

 Al 
  0.2540629  0.7522895  0.0217477

 Al 
  0.9871034  0.0166242  0.4694891

 Al 
  0.9948530  0.2367816  0.7312967

 Al 
  0.2519195  0.0078783  0.7527957

 Al 
  0.2406279  0.2389548  0.4872296

 Al 
  0.9769950  0.5087681  0.4997909

 Al 
  0.0090936  0.7639845  0.7602668

 Al 
  0.2346258  0.4700621  0.7280951

 Al 
  0.2453864  0.7394424  0.5145958

 Al 
  0.5207477  0.5024244  0.9747574

 Al 
  0.4853646  0.7552188  0.2624041

 Al 
  0.7462551  0.4844377  0.2514814

 Al 
  0.7588312  0.7554601  0.0151923

 Al 
  0.4993948  0.9906750  0.5032313

 Al 
  0.5148928  0.2476585  0.7448431

 Al 
  0.7523464  0.9868979  0.7763960

 Al 
  0.7418964  0.2424595  0.5014789

 Al 
  0.4791780  0.4763465  0.4972340

 Al 
  0.4958467  0.7690362  0.7582595

 Al 
  0.7457688  0.4972996  0.7313710

 Al 
  0.7392320  0.7542028  0.5008354

