32 
charge = 0 
 Al 
  0.0029343  0.0320912  0.0143780

 Al 
  0.0063054  0.2618509  0.2519145

 Al 
  0.2642122  0.0198666  0.2435746

 Al 
  0.2783414  0.2460336  0.9981857

 Al 
  0.5193233  0.9950299  0.0210237

 Al 
  0.5061791  0.2515061  0.2509678

 Al 
  0.7458703  0.0042745  0.2581642

 Al 
  0.7527140  0.2590701  0.9968789

 Al 
  0.0007042  0.4932132  0.9938988

 Al 
  0.0086530  0.7583548  0.2570430

 Al 
  0.2426724  0.4807015  0.2374486

 Al 
  0.2534417  0.7539961  0.0214395

 Al 
  0.9865465  0.0140340  0.4737463

 Al 
  0.9952651  0.2385142  0.7284206

 Al 
  0.2530976  0.0065665  0.7521249

 Al 
  0.2406812  0.2368249  0.4877716

 Al 
  0.9785147  0.5082125  0.4989085

 Al 
  0.0119920  0.7657418  0.7585850

 Al 
  0.2389077  0.4687676  0.7324774

 Al 
  0.2413853  0.7380550  0.5133125

 Al 
  0.5170660  0.5042250  0.9760965

 Al 
  0.4881553  0.7524739  0.2597879

 Al 
  0.7475558  0.4879919  0.2532300

 Al 
  0.7562534  0.7561705  0.0122197

 Al 
  0.4964259  0.9913494  0.5010655

 Al 
  0.5101282  0.2464940  0.7431625

 Al 
  0.7512970  0.9886082  0.7739258

 Al 
  0.7419558  0.2442094  0.5042176

 Al 
  0.4811482  0.4744480  0.4975868

 Al 
  0.4995829  0.7698270  0.7587991

 Al 
  0.7474828  0.4979135  0.7264640

 Al 
  0.7352087  0.7535815  0.5031830

