32 
charge = 0 
 Al 
  0.0044812  0.0321989  0.0119474

 Al 
  0.0004975  0.2610514  0.2486993

 Al 
  0.2629697  0.0194557  0.2406861

 Al 
  0.2772833  0.2451673  0.9973887

 Al 
  0.5198852  0.0005804  0.0226239

 Al 
  0.5101629  0.2486461  0.2503082

 Al 
  0.7442589  0.9994233  0.2602767

 Al 
  0.7566420  0.2571457  0.9950522

 Al 
  0.9990260  0.4996436  0.9949334

 Al 
  0.0058054  0.7548426  0.2561494

 Al 
  0.2439879  0.4850713  0.2378669

 Al 
  0.2541656  0.7520073  0.0217192

 Al 
  0.9872581  0.0169682  0.4688926

 Al 
  0.9947602  0.2365056  0.7318524

 Al 
  0.2517214  0.0081060  0.7529145

 Al 
  0.2406675  0.2393310  0.4871727

 Al 
  0.9768081  0.5088411  0.4998998

 Al 
  0.0085553  0.7636565  0.7605614

 Al 
  0.2339166  0.4703381  0.7274231

 Al 
  0.2460819  0.7397084  0.5147641

 Al 
  0.5213009  0.5021162  0.9746213

 Al 
  0.4849364  0.7556198  0.2628632

 Al 
  0.7460113  0.4839080  0.2511757

 Al 
  0.7592891  0.7552906  0.0157170

 Al 
  0.4998800  0.9906366  0.5036038

 Al 
  0.5156614  0.2478021  0.7451636

 Al 
  0.7525519  0.9866789  0.7767165

 Al 
  0.7418977  0.2421600  0.5009839

 Al 
  0.4789008  0.4767635  0.4971425

 Al 
  0.4952020  0.7688258  0.7581791

 Al 
  0.7454817  0.4972130  0.7322781

 Al 
  0.7399535  0.7542993  0.5004208

