32 
charge = 0 
 Al 
  0.0047238  0.0321036  0.0115489

 Al 
  0.9995805  0.2609413  0.2481956

 Al 
  0.2627209  0.0192862  0.2403223

 Al 
  0.2770717  0.2451067  0.9972279

 Al 
  0.5199037  0.0014083  0.0227476

 Al 
  0.5107309  0.2482414  0.2502067

 Al 
  0.7440374  0.9987154  0.2605416

 Al 
  0.7572100  0.2568351  0.9947861

 Al 
  0.9987934  0.5005903  0.9950535

 Al 
  0.0053574  0.7543141  0.2560170

 Al 
  0.2442478  0.4857915  0.2379684

 Al 
  0.2542671  0.7517276  0.0216660

 Al 
  0.9874326  0.0172838  0.4683345

 Al 
  0.9946599  0.2362346  0.7324217

 Al 
  0.2515222  0.0083350  0.7530320

 Al 
  0.2407183  0.2397072  0.4871244

 Al 
  0.9766385  0.5089055  0.4999963

 Al 
  0.0080058  0.7633211  0.7608571

 Al 
  0.2332137  0.4706277  0.7267747

 Al 
  0.2467761  0.7399856  0.5149163

 Al 
  0.5218318  0.5018081  0.9745136

 Al 
  0.4845230  0.7560009  0.2633236

 Al 
  0.7457613  0.4834018  0.2508700

 Al 
  0.7597483  0.7551099  0.0162455

 Al 
  0.5003577  0.9906218  0.5039775

 Al 
  0.5164150  0.2479283  0.7454928

 Al 
  0.7527635  0.9864784  0.7770073

 Al 
  0.7419039  0.2418630  0.5004814

 Al 
  0.4786421  0.4772053  0.4970410

 Al 
  0.4945560  0.7685944  0.7581036

 Al 
  0.7452007  0.4971350  0.7332013

 Al 
  0.7406849  0.7543921  0.5000050

