32 
charge = 0 
 Al 
  0.0040097  0.0323016  0.0127122

 Al 
  0.0022833  0.2612804  0.2496795

 Al 
  0.2634152  0.0197144  0.2414608

 Al 
  0.2776632  0.2453431  0.9976796

 Al 
  0.5198010  0.9989357  0.0222922

 Al 
  0.5090144  0.2494654  0.2505099

 Al 
  0.7447144  0.0008378  0.2597112

 Al 
  0.7555059  0.2577434  0.9955869

 Al 
  0.9995025  0.4977575  0.9946735

 Al 
  0.0066791  0.7558846  0.2564168

 Al 
  0.2435164  0.4836889  0.2376949

 Al 
  0.2539602  0.7525754  0.0217539

 Al 
  0.9869672  0.0162529  0.4701203

 Al 
  0.9949384  0.2370625  0.7307609

 Al 
  0.2521187  0.0076518  0.7526793

 Al 
  0.2406032  0.2385822  0.4872939

 Al 
  0.9772016  0.5086902  0.4996696

 Al 
  0.0096196  0.7643037  0.7599735

 Al 
  0.2353398  0.4698035  0.7287882

 Al 
  0.2446933  0.7391862  0.5144139

 Al 
  0.5201723  0.5027313  0.9749220

 Al 
  0.4858052  0.7547993  0.2619499

 Al 
  0.7464927  0.4849884  0.2517858

 Al 
  0.7583771  0.7556161  0.0146750

 Al 
  0.4989035  0.9907356  0.5028600

 Al 
  0.5141119  0.2474989  0.7445324

 Al 
  0.7521472  0.9871355  0.7760470

 Al 
  0.7418989  0.2427590  0.5019665

 Al 
  0.4794738  0.4759566  0.4973170

 Al 
  0.4964903  0.7692243  0.7583449

 Al 
  0.7460571  0.4973912  0.7304824

 Al 
  0.7385228  0.7541025  0.5012462

