32 
charge = 0 
 Al 
  0.0015482  0.0306074  0.0161663

 Al 
  0.0108769  0.2624326  0.2547065

 Al 
  0.2645488  0.0185907  0.2470979

 Al 
  0.2785840  0.2474580  0.9983540

 Al 
  0.5177528  0.9899337  0.0180758

 Al 
  0.5022276  0.2545431  0.2514294

 Al 
  0.7476301  0.0092359  0.2555245

 Al 
  0.7485199  0.2606455  0.9986808

 Al 
  0.0024566  0.4868472  0.9923717

 Al 
  0.0108881  0.7617036  0.2576877

 Al 
  0.2425127  0.4778068  0.2376442

 Al 
  0.2526236  0.7560863  0.0198542

 Al 
  0.9866727  0.0094859  0.4807559

 Al 
  0.9955188  0.2408804  0.7260928

 Al 
  0.2545258  0.0050196  0.7513947

 Al 
  0.2414979  0.2346381  0.4892778

 Al 
  0.9815764  0.5072769  0.4972972

 Al 
  0.0146738  0.7673754  0.7568140

 Al 
  0.2444050  0.4681439  0.7386615

 Al 
  0.2371553  0.7367655  0.5110527

 Al 
  0.5116851  0.5063611  0.9788835

 Al 
  0.4921972  0.7481882  0.2569403

 Al 
  0.7488082  0.4933134  0.2550715

 Al 
  0.7537585  0.7561643  0.0089624

 Al 
  0.4926538  0.9930981  0.4985199

 Al 
  0.5039689  0.2443555  0.7417133

 Al 
  0.7505520  0.9919162  0.7694693

 Al 
  0.7420709  0.2461376  0.5068932

 Al 
  0.4841901  0.4737105  0.4976041

 Al 
  0.5036657  0.7695696  0.7593609

 Al 
  0.7493688  0.4988812  0.7220237

 Al 
  0.7308846  0.7528266  0.5056185

