32 
charge = 0 
 Al 
  0.0011274  0.0297547  0.0165573

 Al 
  0.0119363  0.2624524  0.2555307

 Al 
  0.2643891  0.0176291  0.2483887

 Al 
  0.2784082  0.2479692  0.9982526

 Al 
  0.5169026  0.9884610  0.0167702

 Al 
  0.5010049  0.2555839  0.2514863

 Al 
  0.7482464  0.0109289  0.2545233

 Al 
  0.7470088  0.2610787  0.9992674

 Al 
  0.0030370  0.4847668  0.9917257

 Al 
  0.0114029  0.7627605  0.2577608

 Al 
  0.2428494  0.4773996  0.2379115

 Al 
  0.2523105  0.7567843  0.0189496

 Al 
  0.9869351  0.0075219  0.4836976

 Al 
  0.9955708  0.2417801  0.7256844

 Al 
  0.2550035  0.0044750  0.7511720

 Al 
  0.2419992  0.2340676  0.4901329

 Al 
  0.9830417  0.5068907  0.4966029

 Al 
  0.0153062  0.7677640  0.7563165

 Al 
  0.2463900  0.4682763  0.7409782

 Al 
  0.2359982  0.7364338  0.5100775

 Al 
  0.5096035  0.5070789  0.9801544

 Al 
  0.4937639  0.7464395  0.2560789

 Al 
  0.7491572  0.4954223  0.2555765

 Al 
  0.7531818  0.7558722  0.0079563

 Al 
  0.4913556  0.9938951  0.4976820

 Al 
  0.5018192  0.2434224  0.7413940

 Al 
  0.7504690  0.9934620  0.7675053

 Al 
  0.7420920  0.2466870  0.5075677

 Al 
  0.4853745  0.4739679  0.4975236

 Al 
  0.5048574  0.7690894  0.7594401

 Al 
  0.7498948  0.4992736  0.7210559

 Al 
  0.7295629  0.7526075  0.5062843

