32 
charge = 0 
 Al 
  0.0006373  0.0283922  0.0168432

 Al 
  0.0128001  0.2622531  0.2564885

 Al 
  0.2639337  0.0159262  0.2500668

 Al 
  0.2779355  0.2485582  0.9980224

 Al 
  0.5155326  0.9868670  0.0148891

 Al 
  0.4996052  0.2568870  0.2514492

 Al 
  0.7490372  0.0130835  0.2531917

 Al 
  0.7449916  0.2615465  0.9999790

 Al 
  0.0037498  0.4822088  0.9908049

 Al 
  0.0118162  0.7640253  0.2576840

 Al 
  0.2436278  0.4774578  0.2384387

 Al 
  0.2518712  0.7576395  0.0174892

 Al 
  0.9874412  0.0046817  0.4878966

 Al 
  0.9956401  0.2430177  0.7255272

 Al 
  0.2555901  0.0037374  0.7509108

 Al 
  0.2428098  0.2335392  0.4915549

 Al 
  0.9852953  0.5063475  0.4956091

 Al 
  0.0158433  0.7680882  0.7557943

 Al 
  0.2490038  0.4688035  0.7440523

 Al 
  0.2348522  0.7361145  0.5086642

 Al 
  0.5067695  0.5079823  0.9820417

 Al 
  0.4958975  0.7439916  0.2550790

 Al 
  0.7495532  0.4983429  0.2560900

 Al 
  0.7527325  0.7552485  0.0067546

 Al 
  0.4897406  0.9950200  0.4966524

 Al 
  0.4991065  0.2420709  0.7411329

 Al 
  0.7505025  0.9958047  0.7646292

 Al 
  0.7420895  0.2472625  0.5081828

 Al 
  0.4869747  0.4747574  0.4973801

 Al 
  0.5061606  0.7681204  0.7593820

 Al 
  0.7504393  0.4998243  0.7203604

 Al 
  0.7280184  0.7523996  0.5069588

