32 
charge = 0 
 Al 
  0.0003181  0.0272029  0.0168791

 Al 
  0.0130501  0.2619115  0.2571246

 Al 
  0.2634065  0.0143248  0.2512933

 Al 
  0.2773860  0.2488998  0.9978046

 Al 
  0.5143198  0.9859425  0.0133768

 Al 
  0.4987290  0.2578016  0.2513341

 Al 
  0.7496114  0.0146441  0.2521979

 Al 
  0.7434496  0.2618274  0.0004641

 Al 
  0.0042461  0.4804279  0.9900723

 Al 
  0.0119214  0.7648755  0.2574835

 Al 
  0.2444483  0.4779627  0.2389659

 Al 
  0.2515160  0.7582236  0.0161997

 Al 
  0.9879338  0.0023811  0.4912665

 Al 
  0.9957081  0.2439904  0.7257029

 Al 
  0.2559886  0.0031533  0.7507413

 Al 
  0.2435139  0.2333263  0.4928457

 Al 
  0.9872234  0.5059131  0.4948183

 Al 
  0.0160141  0.7681748  0.7555072

 Al 
  0.2509566  0.4694941  0.7463455

 Al 
  0.2343065  0.7359673  0.5075120

 Al 
  0.5045926  0.5086246  0.9836134

 Al 
  0.4975286  0.7420722  0.2544243

 Al 
  0.7498181  0.5006225  0.2563536

 Al 
  0.7526410  0.7546112  0.0059304

 Al 
  0.4886305  0.9958876  0.4959396

 Al 
  0.4971969  0.2409782  0.7410475

 Al 
  0.7506175  0.9977786  0.7622741

 Al 
  0.7420610  0.2475719  0.5084241

 Al 
  0.4881887  0.4756831  0.4972650

 Al 
  0.5069279  0.7671440  0.7591963

 Al 
  0.7507351  0.5002599  0.7202886

 Al 
  0.7270135  0.7523217  0.5073053

