32 
charge = 0 
 Al 
  0.9997327  0.0239208  0.0163135

 Al 
  0.0123868  0.2604104  0.2583931

 Al 
  0.2615378  0.0095466  0.2540072

 Al 
  0.2753886  0.2492166  0.9972811

 Al 
  0.5108992  0.9846988  0.0095713

 Al 
  0.4972736  0.2596493  0.2507809

 Al 
  0.7508663  0.0180857  0.2499703

 Al 
  0.7397035  0.2622816  0.0013910

 Al 
  0.0052819  0.4767239  0.9882704

 Al 
  0.0114734  0.7665363  0.2564910

 Al 
  0.2470360  0.4806878  0.2406279

 Al 
  0.2505643  0.7593510  0.0125786

 Al 
  0.9894461  0.9965138  0.4997512

 Al 
  0.9959891  0.2464507  0.7271199

 Al 
  0.2567460  0.0016064  0.7504369

 Al 
  0.2453950  0.2335082  0.4965596

 Al 
  0.9924905  0.5047943  0.4928902

 Al 
  0.0156329  0.7677702  0.7552188

 Al 
  0.2554614  0.4722378  0.7515494

 Al 
  0.2342013  0.7359574  0.5045332

 Al 
  0.4994221  0.5100020  0.9878038

 Al 
  0.5013390  0.7374623  0.2531496

 Al 
  0.7504331  0.5061556  0.2565616

 Al 
  0.7532387  0.7526459  0.0041545

 Al 
  0.4865081  0.9978862  0.4944817

 Al 
  0.4932837  0.2382221  0.7411799

 Al 
  0.7510754  0.0030283  0.7562039

 Al 
  0.7418890  0.2478900  0.5082162

 Al 
  0.4910277  0.4789194  0.4970806

 Al 
  0.5079996  0.7640278  0.7582224

 Al 
  0.7510779  0.5013390  0.7216499

 Al 
  0.7251968  0.7524739  0.5075615

