32 
charge = 0 
 Al 
  0.9994617  0.0212910  0.0153284

 Al 
  0.0110205  0.2587632  0.2591258

 Al 
  0.2597124  0.0054861  0.2557262

 Al 
  0.2733540  0.2489233  0.9970249

 Al 
  0.5081135  0.9845948  0.0067719

 Al 
  0.4967452  0.2606059  0.2501980

 Al 
  0.7516262  0.0202502  0.2485768

 Al 
  0.7369883  0.2624511  0.0018130

 Al 
  0.0058995  0.4745718  0.9870254

 Al 
  0.0105713  0.7673964  0.2553624

 Al 
  0.2492302  0.4838028  0.2421204

 Al 
  0.2497871  0.7598856  0.0096109

 Al 
  0.9907962  0.9921761  0.5059366

 Al 
  0.9963492  0.2483206  0.7289354

 Al 
  0.2570739  0.0003218  0.7503242

 Al 
  0.2467984  0.2342446  0.4995978

 Al 
  0.9966870  0.5039354  0.4915809

 Al 
  0.0147097  0.7668705  0.7553611

 Al 
  0.2584748  0.4751856  0.7548884

 Al 
  0.2351913  0.7362457  0.5022709

 Al 
  0.4958839  0.5108250  0.9911081

 Al 
  0.5038414  0.7343659  0.2524269

 Al 
  0.7509603  0.5100292  0.2563710

 Al 
  0.7542869  0.7509814  0.0029392

 Al 
  0.4855626  0.9991609  0.4936439

 Al 
  0.4911650  0.2362334  0.7415314

 Al 
  0.7514244  0.0070529  0.7516856

 Al 
  0.7416885  0.2478108  0.5073882

 Al 
  0.4929496  0.4819823  0.4971128

 Al 
  0.5081370  0.7612049  0.7570826

 Al 
  0.7510705  0.5021187  0.7238602

 Al 
  0.7244419  0.7529070  0.5072719

