32 
charge = 0 
 Al 
  0.9998020  0.0244270  0.0164522

 Al 
  0.0125811  0.2606864  0.2582286

 Al 
  0.2618583  0.0103077  0.2536360

 Al 
  0.2757363  0.2492203  0.9973491

 Al 
  0.5114326  0.9847978  0.0101319

 Al 
  0.4974308  0.2594166  0.2508811

 Al 
  0.7506980  0.0176167  0.2502747

 Al 
  0.7402492  0.2622321  0.0012796

 Al 
  0.0051445  0.4772090  0.9885303

 Al 
  0.0115972  0.7663284  0.2566779

 Al 
  0.2466202  0.4801705  0.2403557

 Al 
  0.2507116  0.7592149  0.0131429

 Al 
  0.9891998  0.9973813  0.4985038

 Al 
  0.9959346  0.2460844  0.7268316

 Al 
  0.2566568  0.0018464  0.7504703

 Al 
  0.2451141  0.2334216  0.4959779

 Al 
  0.9916823  0.5049626  0.4931662

 Al 
  0.0157542  0.7678853  0.7552250

 Al 
  0.2548302  0.4717440  0.7508316

 Al 
  0.2341097  0.7359289  0.5049787

 Al 
  0.5001572  0.5098176  0.9871652

 Al 
  0.5008057  0.7381169  0.2533117

 Al 
  0.7503403  0.5053586  0.2565665

 Al 
  0.7530865  0.7529602  0.0044008

 Al 
  0.4867618  0.9976103  0.4946723

 Al 
  0.4937850  0.2386256  0.7411341

 Al 
  0.7510024  0.0022363  0.7571061

 Al 
  0.7419224  0.2478776  0.5083139

 Al 
  0.4906267  0.4783724  0.4970942

 Al 
  0.5079093  0.7645401  0.7584092

 Al 
  0.7510569  0.5011819  0.7213257

 Al 
  0.7254059  0.7524194  0.5075726

