32 
charge = 0 
 Al 
  0.0000396  0.0258762  0.0167516

 Al 
  0.0129709  0.2613918  0.2577026

 Al 
  0.2627147  0.0124449  0.2524863

 Al 
  0.2766559  0.2491288  0.9975731

 Al 
  0.5129486  0.9852520  0.0117853

 Al 
  0.4980038  0.2586506  0.2511435

 Al 
  0.7501671  0.0161589  0.2512202

 Al 
  0.7418692  0.2620551  0.0008997

 Al 
  0.0047114  0.4787585  0.9893087

 Al 
  0.0118497  0.7656440  0.2571482

 Al 
  0.2454544  0.4788699  0.2396070

 Al 
  0.2511299  0.7587520  0.0147468

 Al 
  0.9885216  0.9999381  0.4948159

 Al 
  0.9958022  0.2450126  0.7261386

 Al 
  0.2563475  0.0025259  0.7505928

 Al 
  0.2442886  0.2332842  0.4943270

 Al 
  0.9893582  0.5054502  0.4939978

 Al 
  0.0159856  0.7681130  0.7553166

 Al 
  0.2529033  0.4704680  0.7486164

 Al 
  0.2340528  0.7359042  0.5062806

 Al 
  0.5023811  0.5092384  0.9853250

 Al 
  0.4991733  0.7401020  0.2538377

 Al 
  0.7500755  0.5029701  0.2565133

 Al 
  0.7527598  0.7538426  0.0051520

 Al 
  0.4876281  0.9967576  0.4952787

 Al 
  0.4954124  0.2398235  0.7410499

 Al 
  0.7507908  0.9999307  0.7597557

 Al 
  0.7420053  0.2477761  0.5084711

 Al 
  0.4894102  0.4768935  0.4971647

 Al 
  0.5075108  0.7659472  0.7588733

 Al 
  0.7509393  0.5007141  0.7206104

 Al 
  0.7261386  0.7523241  0.5075108

