32 
charge = 0 
 Al 
  0.9993367  0.0191797  0.0142184

 Al 
  0.0095775  0.2571989  0.2595998

 Al 
  0.2580677  0.0021360  0.2568969

 Al 
  0.2714408  0.2483590  0.9969593

 Al 
  0.5058611  0.9849339  0.0046359

 Al 
  0.4965979  0.2610749  0.2496918

 Al 
  0.7520927  0.0216821  0.2476697

 Al 
  0.7349265  0.2625093  0.0019652

 Al 
  0.0062992  0.4732526  0.9861641

 Al 
  0.0095515  0.7678419  0.2542882

 Al 
  0.2509740  0.4867618  0.2434137

 Al 
  0.2491288  0.7601072  0.0071717

 Al 
  0.9919967  0.9889065  0.5105502

 Al 
  0.9967452  0.2498057  0.7307435

 Al 
  0.2571655  0.9992067  0.7503082

 Al 
  0.2478330  0.2351678  0.5020209

 Al 
  0.0000433  0.5032573  0.4906960

 Al 
  0.0136528  0.7657505  0.7556804

 Al 
  0.2605997  0.4780283  0.7571271

 Al 
  0.2365811  0.7366467  0.5005111

 Al 
  0.4933691  0.5113361  0.9937577

 Al 
  0.5055208  0.7322806  0.2519603

 Al 
  0.7514962  0.5128236  0.2560504

 Al 
  0.7553871  0.7496349  0.0019813

 Al 
  0.4852272  0.9999963  0.4931080

 Al 
  0.4899955  0.2347879  0.7419459

 Al 
  0.7516163  0.0101468  0.7482748

 Al 
  0.7415140  0.2476338  0.5063586

 Al 
  0.4943270  0.4846691  0.4972749

 Al 
  0.5078857  0.7587520  0.7559762

 Al 
  0.7509628  0.5026979  0.7262103

 Al 
  0.7242278  0.7534318  0.5067893

