32 
charge = 0 
 Al 
  0.9992909  0.0176563  0.0132283

 Al 
  0.0083857  0.2559428  0.2598894

 Al 
  0.2567917  0.9996968  0.2576333

 Al 
  0.2698913  0.2477662  0.9970063

 Al 
  0.5042362  0.9853881  0.0031583

 Al 
  0.4966128  0.2612395  0.2493231

 Al 
  0.7523439  0.0225373  0.2471301

 Al 
  0.7335058  0.2625167  0.0019690

 Al 
  0.0065356  0.4725335  0.9856381

 Al 
  0.0086506  0.7680189  0.2534305

 Al 
  0.2521855  0.4891218  0.2444037

 Al 
  0.2486251  0.7601443  0.0053784

 Al 
  0.9929447  0.9866875  0.5136540

 Al 
  0.9971016  0.2508737  0.7322261

 Al 
  0.2571246  0.9983330  0.7503391

 Al 
  0.2485137  0.2360217  0.5037325

 Al 
  0.0024467  0.5027759  0.4901688

 Al 
  0.0127246  0.7646787  0.7560245

 Al 
  0.2619709  0.4803611  0.7584909

 Al 
  0.2379164  0.7370341  0.4992797

 Al 
  0.4917479  0.5116158  0.9956698

 Al 
  0.5065269  0.7310504  0.2516707

 Al 
  0.7519863  0.5146441  0.2557398

 Al 
  0.7562992  0.7486733  0.0012648

 Al 
  0.4852235  0.0004864  0.4927813

 Al 
  0.4894374  0.2338523  0.7423222

 Al 
  0.7516757  0.0122729  0.7459581

 Al 
  0.7413952  0.2474816  0.5054057

 Al 
  0.4952391  0.4867185  0.4974840

 Al 
  0.5075095  0.7568808  0.7550777

 Al 
  0.7508502  0.5030902  0.7282102

 Al 
  0.7243082  0.7539057  0.5063103

