32 
charge = 0 
 Al 
  0.9993169  0.0186637  0.0139015

 Al 
  0.0091877  0.2567856  0.2597025

 Al 
  0.2576444  0.0013118  0.2571556

 Al 
  0.2709334  0.2481771  0.9969655

 Al 
  0.5053116  0.9850688  0.0041297

 Al 
  0.4965930  0.2611480  0.2495656

 Al 
  0.7521868  0.0219890  0.2474754

 Al 
  0.7344389  0.2625155  0.0019764

 Al 
  0.0063846  0.4729865  0.9859759

 Al 
  0.0092632  0.7679162  0.2540048

 Al 
  0.2513898  0.4875402  0.2437429

 Al 
  0.2489617  0.7601319  0.0065690

 Al 
  0.9923085  0.9881417  0.5116232

 Al 
  0.9968578  0.2501671  0.7312287

 Al 
  0.2571630  0.9989184  0.7503156

 Al 
  0.2480706  0.2354388  0.5026051

 Al 
  0.0008589  0.5030939  0.4905054

 Al 
  0.0133533  0.7654151  0.7557856

 Al 
  0.2610799  0.4787894  0.7576122

 Al 
  0.2370006  0.7367680  0.5000903

 Al 
  0.4928011  0.5114400  0.9944050

 Al 
  0.5058809  0.7318351  0.2518576

 Al 
  0.7516497  0.5134597  0.2559527

 Al 
  0.7556854  0.7493082  0.0017425

 Al 
  0.4852025  0.0001733  0.4929929

 Al 
  0.4897802  0.2344587  0.7420660

 Al 
  0.7516447  0.0108769  0.7474754

 Al 
  0.7414720  0.2475818  0.5060566

 Al 
  0.4946426  0.4853534  0.4973368

 Al 
  0.5077768  0.7581295  0.7556816

 Al 
  0.7509282  0.5028328  0.7268588

 Al 
  0.7242315  0.7535827  0.5066395

