32 
charge = 0 
 Al 
  0.9993020  0.0181563  0.0135723

 Al 
  0.0087892  0.2563673  0.2597990

 Al 
  0.2572187  0.0004975  0.2574019

 Al 
  0.2704173  0.2479791  0.9969816

 Al 
  0.5047696  0.9852198  0.0036372

 Al 
  0.4965979  0.2612024  0.2494431

 Al 
  0.7522697  0.0222736  0.2472959

 Al 
  0.7339649  0.2625179  0.0019776

 Al 
  0.0064626  0.4727464  0.9858002

 Al 
  0.0089624  0.7679756  0.2537189

 Al 
  0.2517945  0.4883273  0.2440733

 Al 
  0.2487934  0.7601443  0.0059712

 Al 
  0.9926254  0.9874016  0.5126590

 Al 
  0.9969779  0.2505235  0.7317237

 Al 
  0.2571494  0.9986275  0.7503255

 Al 
  0.2482971  0.2357235  0.5031756

 Al 
  0.0016596  0.5029330  0.4903297

 Al 
  0.0130439  0.7650587  0.7559007

 Al 
  0.2615366  0.4795678  0.7580677

 Al 
  0.2374462  0.7368967  0.4996795

 Al 
  0.4922603  0.5115328  0.9950423

 Al 
  0.5062175  0.7314242  0.2517623

 Al 
  0.7518130  0.5140661  0.2558487

 Al 
  0.7559898  0.7489864  0.0015036

 Al 
  0.4852025  0.0003366  0.4928840

 Al 
  0.4895946  0.2341468  0.7421910

 Al 
  0.7516645  0.0115873  0.7467031

 Al 
  0.7414324  0.2475311  0.5057386

 Al 
  0.4949470  0.4860366  0.4974061

 Al 
  0.5076506  0.7575046  0.7553822

 Al 
  0.7508898  0.5029640  0.7275259

 Al 
  0.7242587  0.7537412  0.5064799

