32 
charge = 0 
 Al 
  0.9994221  0.0207589  0.0150760

 Al 
  0.0106814  0.2583882  0.2592533

 Al 
  0.2593114  0.0046470  0.2560381

 Al 
  0.2728961  0.2488082  0.9969952

 Al 
  0.5075467  0.9846480  0.0062237

 Al 
  0.4966870  0.2607495  0.2500718

 Al 
  0.7517561  0.0206376  0.2483305

 Al 
  0.7364586  0.2624722  0.0018662

 Al 
  0.0060084  0.4742055  0.9867964

 Al 
  0.0103386  0.7675301  0.2551049

 Al 
  0.2496745  0.4845131  0.2424385

 Al 
  0.2496238  0.7599587  0.0090008

 Al 
  0.9910883  0.9913321  0.5071321

 Al 
  0.9964395  0.2486956  0.7293636

 Al 
  0.2571123  0.0000495  0.7503131

 Al 
  0.2470682  0.2344500  0.5002129

 Al 
  0.9975348  0.5037647  0.4913433

 Al 
  0.0144683  0.7666229  0.7554242

 Al 
  0.2590342  0.4758613  0.7554898

 Al 
  0.2354921  0.7363324  0.5018229

 Al 
  0.4952218  0.5109673  0.9917764

 Al 
  0.5042931  0.7338028  0.2523006

 Al 
  0.7510829  0.5107606  0.2563029

 Al 
  0.7545443  0.7506423  0.0026991

 Al 
  0.4854426  0.9993874  0.4934978

 Al 
  0.4908272  0.2358547  0.7416254

 Al 
  0.7514826  0.0078461  0.7508057

 Al 
  0.7416452  0.2477724  0.5071593

 Al 
  0.4933097  0.4826419  0.4971412

 Al 
  0.5081036  0.7606022  0.7568190

 Al 
  0.7510507  0.5022685  0.7244060

 Al 
  0.7243552  0.7530246  0.5071704

