32 
charge = 0 
 Al 
  0.9993886  0.0202280  0.0148062

 Al 
  0.0103275  0.2580021  0.2593758

 Al 
  0.2589030  0.0038067  0.2563376

 Al 
  0.2724234  0.2486758  0.9969742

 Al 
  0.5069811  0.9847223  0.0056841

 Al 
  0.4966437  0.2608757  0.2499455

 Al 
  0.7518774  0.0210051  0.2480966

 Al 
  0.7359376  0.2624882  0.0019108

 Al 
  0.0061111  0.4738627  0.9865749

 Al 
  0.0100898  0.7676489  0.2548389

 Al 
  0.2501151  0.4852458  0.2427603

 Al 
  0.2494604  0.7600205  0.0083894

 Al 
  0.9913853  0.9905042  0.5083016

 Al 
  0.9965348  0.2490681  0.7298092

 Al 
  0.2571407  0.9997723  0.7503082

 Al 
  0.2473306  0.2346728  0.5008230

 Al 
  0.9983788  0.5035939  0.4911155

 Al 
  0.0142109  0.7663544  0.7554985

 Al 
  0.2595763  0.4765618  0.7560641

 Al 
  0.2358250  0.7364289  0.5013786

 Al 
  0.4945820  0.5110997  0.9924422

 Al 
  0.5047250  0.7332669  0.2521818

 Al 
  0.7512128  0.5114722  0.2562262

 Al 
  0.7548154  0.7503032  0.0024590

 Al 
  0.4853460  0.9996027  0.4933605

 Al 
  0.4905190  0.2354871  0.7417257

 Al 
  0.7515333  0.0086283  0.7499418

 Al 
  0.7416007  0.2477303  0.5069105

 Al 
  0.4936600  0.4833115  0.4971771

 Al 
  0.5080491  0.7599908  0.7565467

 Al 
  0.7510247  0.5024157  0.7249814

 Al 
  0.7242896  0.7531521  0.5070553

