32 
charge = 0 
 Al 
  0.9993045  0.0139820  0.0100416

 Al 
  0.0050765  0.2524615  0.2604215

 Al 
  0.2534243  0.9938654  0.2590206

 Al 
  0.2654572  0.2456339  0.9975484

 Al 
  0.5003737  0.9871628  0.9998589

 Al 
  0.4969667  0.2609376  0.2485149

 Al 
  0.7525568  0.0238305  0.2462489

 Al 
  0.7303747  0.2624425  0.0015445

 Al 
  0.0068969  0.4717811  0.9848881

 Al 
  0.0058017  0.7678048  0.2511212

 Al 
  0.2547597  0.4955473  0.2470125

 Al 
  0.2472489  0.7597099  0.0009158

 Al 
  0.9956562  0.9820034  0.5201153

 Al 
  0.9982674  0.2534256  0.7363806

 Al 
  0.2565529  0.9958727  0.7505445

 Al 
  0.2498379  0.2388322  0.5075825

 Al 
  0.0081196  0.5016645  0.4894362

 Al 
  0.0098918  0.7608361  0.7572855

 Al 
  0.2646416  0.4871306  0.7607854

 Al 
  0.2424274  0.7383570  0.4965150

 Al 
  0.4886491  0.5118905  0.0002450

 Al 
  0.5080776  0.7294329  0.2511064

 Al 
  0.7537634  0.5181315  0.2547423

 Al 
  0.7588275  0.7464618  0.9993231

 Al 
  0.4861529  0.0012054  0.4921477

 Al 
  0.4891206  0.2321741  0.7435733

 Al 
  0.7514071  0.0168544  0.7410598

 Al 
  0.7412442  0.2472390  0.5022709

 Al 
  0.4971895  0.4920041  0.4983949

 Al 
  0.5058636  0.7519925  0.7525469

 Al 
  0.7505260  0.5039169  0.7341320

 Al 
  0.7255433  0.7554143  0.5046743

