32 
charge = 0 
 Al 
  0.9993144  0.0135587  0.0095886

 Al 
  0.0046644  0.2520185  0.2604673

 Al 
  0.2530122  0.9932144  0.2591406

 Al 
  0.2648743  0.2453233  0.9976585

 Al 
  0.4999406  0.9874264  0.9995087

 Al 
  0.4970261  0.2608311  0.2484382

 Al 
  0.7525358  0.0238899  0.2461871

 Al 
  0.7300505  0.2624264  0.0014492

 Al 
  0.0069155  0.4718059  0.9848696

 Al 
  0.0054032  0.7677070  0.2508378

 Al 
  0.2550072  0.4963467  0.2473343

 Al 
  0.2470719  0.7596010  0.0003911

 Al 
  0.9960188  0.9815442  0.5207403

 Al 
  0.9984332  0.2537114  0.7369066

 Al 
  0.2564353  0.9955510  0.7505779

 Al 
  0.2499530  0.2392320  0.5079848

 Al 
  0.0087545  0.5015457  0.4894151

 Al 
  0.0095107  0.7602470  0.7574712

 Al 
  0.2648805  0.4880253  0.7609462

 Al 
  0.2430758  0.7385488  0.4962267

 Al 
  0.4883818  0.5118756  0.0007623

 Al 
  0.5081617  0.7294107  0.2510519

 Al 
  0.7540419  0.5184273  0.2546074

 Al 
  0.7591382  0.7462254  0.9990718

 Al 
  0.4863546  0.0012413  0.4920846

 Al 
  0.4891825  0.2320541  0.7437565

 Al 
  0.7513279  0.0173135  0.7405784

 Al 
  0.7412492  0.2472427  0.5018229

 Al 
  0.4973937  0.4926390  0.4985446

 Al 
  0.5056012  0.7513972  0.7522214

 Al 
  0.7504876  0.5039973  0.7349166

 Al 
  0.7258032  0.7556235  0.5044404

