32 
charge = 0 
 Al 
  0.9993354  0.0127308  0.0086444

 Al 
  0.0038439  0.2511287  0.2605490

 Al 
  0.2521930  0.9919608  0.2593510

 Al 
  0.2636850  0.2446748  0.9979073

 Al 
  0.4991052  0.9879771  0.9988454

 Al 
  0.4971462  0.2605750  0.2483008

 Al 
  0.7524615  0.0239382  0.2460868

 Al 
  0.7294404  0.2623892  0.0012314

 Al 
  0.0069390  0.4719346  0.9848894

 Al 
  0.0045765  0.7674632  0.2502772

 Al 
  0.2554515  0.4979419  0.2479753

 Al 
  0.2467118  0.7593461  0.9993577

 Al 
  0.9967650  0.9807076  0.5218752

 Al 
  0.9987773  0.2542585  0.7379622

 Al 
  0.2561655  0.9948938  0.7506472

 Al 
  0.2501522  0.2400648  0.5087397

 Al 
  0.0099809  0.5013180  0.4894213

 Al 
  0.0087273  0.7589897  0.7578573

 Al 
  0.2653012  0.4898507  0.7611900

 Al 
  0.2444248  0.7389510  0.4956834

 Al 
  0.4879239  0.5118101  0.0017660

 Al 
  0.5082644  0.7294899  0.2509467

 Al 
  0.7546384  0.5189298  0.2543327

 Al 
  0.7597520  0.7457787  0.9985570

 Al 
  0.4868138  0.0012784  0.4919670

 Al 
  0.4893656  0.2318759  0.7441439

 Al 
  0.7511373  0.0181612  0.7396961

 Al 
  0.7412789  0.2472811  0.5008935

 Al 
  0.4977872  0.4938914  0.4988689

 Al 
  0.5050431  0.7502116  0.7515668

 Al 
  0.7504133  0.5041421  0.7365155

 Al 
  0.7263984  0.7560554  0.5039515

