32 
charge = 0 
 Al 
  0.9993243  0.0131417  0.0091233

 Al 
  0.0042535  0.2515742  0.2605094

 Al 
  0.2526026  0.9925796  0.2592508

 Al 
  0.2642839  0.2450027  0.9977786

 Al 
  0.4995174  0.9876986  0.9991708

 Al 
  0.4970855  0.2607099  0.2483664

 Al 
  0.7525036  0.0239258  0.2461326

 Al 
  0.7297386  0.2624090  0.0013452

 Al 
  0.0069303  0.4718578  0.9848696

 Al 
  0.0049948  0.7675932  0.2505569

 Al 
  0.2552374  0.4971449  0.2476548

 Al 
  0.2468925  0.7594797  0.9998713

 Al 
  0.9963888  0.9811123  0.5213257

 Al 
  0.9986028  0.2539887  0.7374338

 Al 
  0.2563054  0.9952242  0.7506126

 Al 
  0.2500582  0.2396428  0.5083709

 Al 
  0.0093745  0.5014294  0.4894102

 Al 
  0.0091221  0.7596319  0.7576617

 Al 
  0.2651007  0.4889325  0.7610811

 Al 
  0.2437404  0.7387468  0.4959495

 Al 
  0.4881404  0.5118484  0.0012697

 Al 
  0.5082236  0.7294292  0.2509975

 Al 
  0.7543327  0.5186934  0.2544713

 Al 
  0.7594463  0.7459977  0.9988157

 Al 
  0.4865762  0.0012648  0.4920239

 Al 
  0.4892641  0.2319551  0.7439471

 Al 
  0.7512376  0.0177491  0.7401243

 Al 
  0.7412603  0.2472563  0.5013650

 Al 
  0.4975929  0.4932677  0.4987030

 Al 
  0.5053277  0.7508032  0.7518947

 Al 
  0.7504505  0.5040716  0.7357111

 Al 
  0.7260878  0.7558376  0.5041990

