32 
charge = 0 
 Al 
  0.9993552  0.0119227  0.0076419

 Al 
  0.0030333  0.2502289  0.2606158

 Al 
  0.2513799  0.9907703  0.2595230

 Al 
  0.2624610  0.2439941  0.9981944

 Al 
  0.4983083  0.9885538  0.9982278

 Al 
  0.4972625  0.2602656  0.2481894

 Al 
  0.7523402  0.0238924  0.2460175

 Al 
  0.7288835  0.2623472  0.0009777

 Al 
  0.0069440  0.4721709  0.9849859

 Al 
  0.0037065  0.7671514  0.2497240

 Al 
  0.2558302  0.4995334  0.2486152

 Al 
  0.2463430  0.7590404  0.9983454

 Al 
  0.9975434  0.9799725  0.5228640

 Al 
  0.9991399  0.2547745  0.7390216

 Al 
  0.2558549  0.9942181  0.7507165

 Al 
  0.2503119  0.2409435  0.5094290

 Al 
  0.0111554  0.5011076  0.4894894

 Al 
  0.0079192  0.7576160  0.7582620

 Al 
  0.2656465  0.4917294  0.7613398

 Al 
  0.2458455  0.7393780  0.4951884

 Al 
  0.4875600  0.5116974  0.0027301

 Al 
  0.5082818  0.7297374  0.2508465

 Al 
  0.7552931  0.5193146  0.2540518

 Al 
  0.7603497  0.7453653  0.9980249

 Al 
  0.4873447  0.0012772  0.4918556

 Al 
  0.4896230  0.2317818  0.7445609

 Al 
  0.7509047  0.0189161  0.7389201

 Al 
  0.7413383  0.2473665  0.4999158

 Al 
  0.4981635  0.4951240  0.4992265

 Al 
  0.5044391  0.7490347  0.7509047

 Al 
  0.7503428  0.5042684  0.7381553

 Al 
  0.7270952  0.7565046  0.5034367

