32 
charge = 0 
 Al 
  0.9992835  0.0152938  0.0113249

 Al 
  0.0063202  0.2537795  0.2602582

 Al 
  0.2546718  0.9959235  0.2585924

 Al 
  0.2671662  0.2465138  0.9972749

 Al 
  0.5017363  0.9864202  0.0009876

 Al 
  0.4967997  0.2611690  0.2487810

 Al 
  0.7525543  0.0235149  0.2464940

 Al 
  0.7314353  0.2624833  0.0017734

 Al 
  0.0068054  0.4718653  0.9850490

 Al 
  0.0069403  0.7680028  0.2519813

 Al 
  0.2539169  0.4931390  0.2460423

 Al 
  0.2477724  0.7599624  0.0025321

 Al 
  0.9946055  0.9835454  0.5180041

 Al 
  0.9977959  0.2525246  0.7348064

 Al 
  0.2568462  0.9968182  0.7504529

 Al 
  0.2494270  0.2376962  0.5062695

 Al 
  0.0061210  0.5020506  0.4895933

 Al 
  0.0110032  0.7624511  0.7567633

 Al 
  0.2638038  0.4845107  0.7601443

 Al 
  0.2405920  0.7378150  0.4974580

 Al 
  0.4896045  0.5118695  0.9986214

 Al 
  0.5076853  0.7297436  0.2512895

 Al 
  0.7530085  0.5170598  0.2551359

 Al 
  0.7578808  0.7472254  0.0000631

 Al 
  0.4856567  0.0010309  0.4923531

 Al 
  0.4890599  0.2326556  0.7430610

 Al 
  0.7515841  0.0153284  0.7426749

 Al 
  0.7412640  0.2472823  0.5035394

 Al 
  0.4965299  0.4900661  0.4979939

 Al 
  0.5065789  0.7538006  0.7535110

 Al 
  0.7506460  0.5036446  0.7318326

 Al 
  0.7249059  0.7548141  0.5053401

