32 
charge = 0 
 Al 
  0.9993837  0.0095540  0.0042424

 Al 
  0.0006683  0.2474556  0.2607359

 Al 
  0.2489456  0.9875526  0.2598139

 Al 
  0.2585243  0.2417813  0.9992896

 Al 
  0.4961240  0.9904200  0.9966091

 Al 
  0.4975360  0.2590231  0.2480075

 Al 
  0.7516794  0.0231214  0.2459321

 Al 
  0.7275123  0.2621751  0.9999938

 Al 
  0.0068462  0.4735570  0.9858101

 Al 
  0.0008081  0.7657913  0.2481115

 Al 
  0.2565702  0.5042968  0.2505421

 Al 
  0.2451785  0.7577892  0.9954099

 Al 
  0.0001213  0.9783600  0.5250124

 Al 
  0.0003391  0.2561272  0.7422417

 Al 
  0.2546557  0.9920734  0.7509146

 Al 
  0.2505804  0.2438605  0.5111121

 Al 
  0.0144176  0.5005854  0.4900995

 Al 
  0.0053079  0.7527251  0.7595453

 Al 
  0.2662455  0.4977117  0.7612556

 Al 
  0.2505643  0.7408235  0.4939867

 Al 
  0.4870180  0.5110576  0.0054106

 Al 
  0.5078845  0.7315492  0.2505532

 Al 
  0.7576246  0.5197861  0.2531682

 Al 
  0.7620068  0.7443382  0.9962972

 Al 
  0.4893557  0.0010655  0.4915499

 Al 
  0.4907839  0.2320430  0.7460200

 Al 
  0.7499542  0.0206500  0.7371949

 Al 
  0.7417170  0.2479704  0.4966908

 Al 
  0.4992550  0.4987290  0.5004950

 Al 
  0.5023798  0.7455373  0.7488713

 Al 
  0.7501497  0.5045245  0.7433506

 Al 
  0.7298636  0.7579637  0.5017338

