32 
charge = 0 
 Al 
  0.9993354  0.0079823  0.0016113

 Al 
  0.9991906  0.2455497  0.2607371

 Al 
  0.2473232  0.9857099  0.2598225

 Al 
  0.2556495  0.2402010  0.0002104

 Al 
  0.4948394  0.9917393  0.9957081

 Al 
  0.4975942  0.2579588  0.2480286

 Al 
  0.7509579  0.0220113  0.2459222

 Al 
  0.7268588  0.2620056  0.9991572

 Al 
  0.0066940  0.4750780  0.9868719

 Al 
  0.9986251  0.7645030  0.2470806

 Al 
  0.2567323  0.5074427  0.2518180

 Al 
  0.2443716  0.7566593  0.9935585

 Al 
  0.0020692  0.9777585  0.5257896

 Al 
  0.0012264  0.2568425  0.7444235

 Al 
  0.2536459  0.9905524  0.7510148

 Al 
  0.2506151  0.2460324  0.5119140

 Al 
  0.0163816  0.5003465  0.4908668

 Al 
  0.0033909  0.7487736  0.7603968

 Al 
  0.2662739  0.5019751  0.7607903

 Al 
  0.2540753  0.7419398  0.4934384

 Al 
  0.4870972  0.5103720  0.0070207

 Al 
  0.5072967  0.7336865  0.2503280

 Al 
  0.7594748  0.5195461  0.2525395

 Al 
  0.7629375  0.7438468  0.9950275

 Al 
  0.4910264  0.0007871  0.4913581

 Al 
  0.4918308  0.2327125  0.7471796

 Al 
  0.7491250  0.0213504  0.7365489

 Al 
  0.7421563  0.2487228  0.4943307

 Al 
  0.5000062  0.5010408  0.5014913

 Al 
  0.5008440  0.7432677  0.7475026

 Al 
  0.7500322  0.5045914  0.7470360

 Al 
  0.7323264  0.7590144  0.5004765

