32 
charge = 0 
 Al 
  0.9993552  0.0083758  0.0022969

 Al 
  0.9995495  0.2460287  0.2607445

 Al 
  0.2477278  0.9861467  0.2598349

 Al 
  0.2563871  0.2406007  0.9999678

 Al 
  0.4951463  0.9914064  0.9959210

 Al 
  0.4975917  0.2582409  0.2480125

 Al 
  0.7511596  0.0223380  0.2459247

 Al 
  0.7270011  0.2620526  0.9993787

 Al 
  0.0067385  0.4746522  0.9865638

 Al 
  0.9991882  0.7648532  0.2473343

 Al 
  0.2567163  0.5066618  0.2515012

 Al 
  0.2445733  0.7569650  0.9940102

 Al 
  0.0015655  0.9778736  0.5256435

 Al 
  0.0009987  0.2566791  0.7438765

 Al 
  0.2539132  0.9909373  0.7509925

 Al 
  0.2506151  0.2454755  0.5117383

 Al 
  0.0159089  0.5003973  0.4906465

 Al 
  0.0038835  0.7498131  0.7601901

 Al 
  0.2662950  0.5008935  0.7609363

 Al 
  0.2531731  0.7416489  0.4935548

 Al 
  0.4870452  0.5105626  0.0066333

 Al 
  0.5074637  0.7330825  0.2503886

 Al 
  0.7589921  0.5196463  0.2526991

 Al 
  0.7627221  0.7439533  0.9953530

 Al 
  0.4905859  0.0008651  0.4914051

 Al 
  0.4915524  0.2325058  0.7468764

 Al 
  0.7493453  0.0212106  0.7366715

 Al 
  0.7420326  0.2485050  0.4949322

 Al 
  0.4998144  0.5004727  0.5012326

 Al 
  0.5012363  0.7438258  0.7478429

 Al 
  0.7500619  0.5045827  0.7461017

 Al 
  0.7316618  0.7587483  0.5007982

