32 
charge = 0 
 Al 
  0.9989085  0.0048389  0.9956574

 Al 
  0.9967378  0.2418024  0.2604549

 Al 
  0.2442181  0.9829637  0.2593634

 Al 
  0.2494901  0.2370774  0.0023811

 Al 
  0.4927974  0.9942948  0.9943505

 Al 
  0.4972229  0.2554589  0.2484258

 Al 
  0.7488627  0.0182342  0.2457873

 Al 
  0.7263205  0.2614635  0.9972204

 Al 
  0.0062287  0.4794676  0.9903780

 Al 
  0.9938567  0.7610947  0.2452292

 Al 
  0.2562881  0.5133038  0.2541297

 Al 
  0.2428655  0.7537523  0.9904361

 Al 
  0.0063314  0.9776397  0.5258081

 Al 
  0.0031013  0.2577360  0.7487154

 Al 
  0.2513192  0.9875179  0.7510816

 Al 
  0.2505173  0.2506435  0.5127011

 Al 
  0.0195671  0.5002549  0.4932738

 Al 
  0.9992785  0.7395884  0.7616789

 Al 
  0.2653804  0.5105428  0.7590416

 Al 
  0.2615217  0.7444730  0.4930981

 Al 
  0.4882147  0.5084736  0.0096555

 Al 
  0.5056606  0.7399696  0.2496436

 Al 
  0.7635872  0.5178444  0.2512140

 Al 
  0.7640253  0.7434521  0.9924038

 Al 
  0.4948913  0.0000928  0.4910537

 Al 
  0.4942367  0.2353275  0.7498292

 Al 
  0.7471722  0.0215410  0.7364796

 Al 
  0.7434731  0.2511534  0.4895191

 Al 
  0.5016992  0.5051631  0.5036384

 Al 
  0.4977786  0.7393037  0.7450052

 Al 
  0.7497748  0.5044329  0.7545097

 Al 
  0.7386701  0.7610960  0.4978330

