32 
charge = 0 
 Al 
  0.9988144  0.0044527  0.9948852

 Al 
  0.9964989  0.2413618  0.2603881

 Al 
  0.2438592  0.9827298  0.2592582

 Al 
  0.2487204  0.2367185  0.0026682

 Al 
  0.4925994  0.9945832  0.9942268

 Al 
  0.4971214  0.2551322  0.2485063

 Al 
  0.7485545  0.0176316  0.2457477

 Al 
  0.7263366  0.2613720  0.9969742

 Al 
  0.0061631  0.4801124  0.9909373

 Al 
  0.9932565  0.7606146  0.2450312

 Al 
  0.2561692  0.5139572  0.2543748

 Al 
  0.2427033  0.7533476  0.9901317

 Al 
  0.0068660  0.9777189  0.5256732

 Al 
  0.0033290  0.2577917  0.7492228

 Al 
  0.2510259  0.9871677  0.7510779

 Al 
  0.2505062  0.2512091  0.5127209

 Al 
  0.0198691  0.5002884  0.4936426

 Al 
  0.9987662  0.7383892  0.7617655

 Al 
  0.2651799  0.5115403  0.7587669

 Al 
  0.2624313  0.7448035  0.4931340

 Al 
  0.4884300  0.5082038  0.0099141

 Al 
  0.5054453  0.7408928  0.2495273

 Al 
  0.7640971  0.5175363  0.2510482

 Al 
  0.7640612  0.7434669  0.9920945

 Al 
  0.4953926  0.0000111  0.4910301

 Al 
  0.4945337  0.2357656  0.7501708

 Al 
  0.7469222  0.0214470  0.7365774

 Al 
  0.7436723  0.2515333  0.4889560

 Al 
  0.5019331  0.5056012  0.5038958

 Al 
  0.4974407  0.7389090  0.7447478

 Al 
  0.7497339  0.5043810  0.7553982

 Al 
  0.7395649  0.7613324  0.4975075

