32 
charge = 0 
 Al 
  0.9989926  0.0052275  0.9964296

 Al 
  0.9969952  0.2422529  0.2605143

 Al 
  0.2445844  0.9832248  0.2594575

 Al 
  0.2502661  0.2374474  0.0020964

 Al 
  0.4930078  0.9939966  0.9944854

 Al 
  0.4973108  0.2557856  0.2483528

 Al 
  0.7491634  0.0188122  0.2458208

 Al 
  0.7263230  0.2615477  0.9974679

 Al 
  0.0062942  0.4788377  0.9898433

 Al 
  0.9944607  0.7615675  0.2454371

 Al 
  0.2563945  0.5126293  0.2538723

 Al 
  0.2430338  0.7541520  0.9907628

 Al 
  0.0057930  0.9775791  0.5259146

 Al 
  0.0028711  0.2576667  0.7481981

 Al 
  0.2516150  0.9878793  0.7510841

 Al 
  0.2505309  0.2500705  0.5126640

 Al 
  0.0192416  0.5002327  0.4929162

 Al 
  0.9997958  0.7407863  0.7615724

 Al 
  0.2655611  0.5095181  0.7593077

 Al 
  0.2605985  0.7441439  0.4930796

 Al 
  0.4880142  0.5087384  0.0093795

 Al 
  0.5058784  0.7390686  0.2497525

 Al 
  0.7630699  0.5181352  0.2513799

 Al 
  0.7639647  0.7434533  0.9927207

 Al 
  0.4943901  0.0001770  0.4910821

 Al 
  0.4939347  0.2349116  0.7494876

 Al 
  0.7474246  0.0216091  0.7364029

 Al 
  0.7432800  0.2507871  0.4900983

 Al 
  0.5014702  0.5047040  0.5033748

 Al 
  0.4981338  0.7397270  0.7452799

 Al 
  0.7498131  0.5044775  0.7536038

 Al 
  0.7377927  0.7608522  0.4981610

