32 
charge = 0 
 Al 
  0.9992364  0.0067979  0.9994592

 Al 
  0.9981734  0.2441166  0.2606814

 Al 
  0.2461227  0.9845144  0.2597285

 Al 
  0.2533748  0.2389993  0.0009851

 Al 
  0.4939830  0.9927306  0.9951265

 Al 
  0.4975410  0.2570628  0.2481226

 Al 
  0.7502648  0.0208331  0.2459024

 Al 
  0.7265247  0.2618373  0.9984555

 Al 
  0.0065393  0.4765333  0.9879721

 Al 
  0.9968752  0.7633397  0.2463430

 Al 
  0.2566804  0.5097421  0.2527412

 Al 
  0.2437738  0.7556581  0.9922689

 Al 
  0.0036347  0.9775494  0.5260321

 Al 
  0.0019269  0.2572682  0.7460621

 Al 
  0.2528006  0.9893916  0.7510618

 Al 
  0.2505903  0.2477489  0.5123397

 Al 
  0.0177157  0.5002438  0.4916403

 Al 
  0.0018712  0.7454779  0.7609747

 Al 
  0.2660883  0.5052436  0.7602470

 Al 
  0.2568487  0.7428543  0.4931835

 Al 
  0.4873756  0.5097297  0.0081159

 Al 
  0.5067286  0.7357643  0.2501176

 Al 
  0.7609858  0.5190857  0.2520482

 Al 
  0.7634919  0.7435981  0.9940349

 Al 
  0.4924187  0.0005322  0.4912269

 Al 
  0.4927120  0.2334959  0.7481375

 Al 
  0.7484209  0.0216177  0.7363336

 Al 
  0.7425858  0.2494926  0.4925028

 Al 
  0.5006052  0.5026917  0.5022920

 Al 
  0.4996572  0.7416514  0.7465026

 Al 
  0.7499455  0.5045815  0.7498676

 Al 
  0.7345045  0.7598176  0.4994901

