32 
charge = 0 
 Al 
  0.9991894  0.0064044  0.9987154

 Al 
  0.9978578  0.2436426  0.2606505

 Al 
  0.2457292  0.9841567  0.2596765

 Al 
  0.2526014  0.2386033  0.0012561

 Al 
  0.4937206  0.9930548  0.9949520

 Al 
  0.4975014  0.2567497  0.2481696

 Al 
  0.7500074  0.0203740  0.2458888

 Al 
  0.7264479  0.2617729  0.9982117

 Al 
  0.0064811  0.4770729  0.9883979

 Al 
  0.9962762  0.7629177  0.2461066

 Al 
  0.2566321  0.5104871  0.2530370

 Al 
  0.2435820  0.7552980  0.9918667

 Al 
  0.0041706  0.9775246  0.5260495

 Al 
  0.0021633  0.2573858  0.7466041

 Al 
  0.2525073  0.9890067  0.7510717

 Al 
  0.2505767  0.2483293  0.5124474

 Al 
  0.0181278  0.5002265  0.4919348

 Al 
  0.0013551  0.7443295  0.7611467

 Al 
  0.2659868  0.5063289  0.7600329

 Al 
  0.2577880  0.7431711  0.4931315

 Al 
  0.4875093  0.5094946  0.0084538

 Al 
  0.5065232  0.7365378  0.2500359

 Al 
  0.7615031  0.5188815  0.2518811

 Al 
  0.7636417  0.7435412  0.9937033

 Al 
  0.4929026  0.0004430  0.4911861

 Al 
  0.4930152  0.2338114  0.7484691

 Al 
  0.7481758  0.0216561  0.7363138

 Al 
  0.7427479  0.2497896  0.4918927

 Al 
  0.5008143  0.5032177  0.5025642

 Al 
  0.4992661  0.7411415  0.7461809

 Al 
  0.7499146  0.5045666  0.7508118

 Al 
  0.7352891  0.7600824  0.4991572

