32 
charge = 0 
 Al 
  0.9992773  0.0071927  0.0001918

 Al 
  0.9985013  0.2445931  0.2607062

 Al 
  0.2465200  0.9848931  0.2597706

 Al 
  0.2541421  0.2393990  0.0007203

 Al 
  0.4942577  0.9924014  0.9953109

 Al 
  0.4975694  0.2573684  0.2480843

 Al 
  0.7505099  0.0212588  0.2459111

 Al 
  0.7266200  0.2618979  0.9986956

 Al 
  0.0065950  0.4760198  0.9875761

 Al 
  0.9974667  0.7637444  0.2465843

 Al 
  0.2567138  0.5089847  0.2524392

 Al 
  0.2439706  0.7560059  0.9926860

 Al 
  0.0031050  0.9775964  0.5259839

 Al 
  0.0016917  0.2571370  0.7455175

 Al 
  0.2530877  0.9897777  0.7510495

 Al 
  0.2506015  0.2471709  0.5122147

 Al 
  0.0172863  0.5002698  0.4913643

 Al 
  0.0023835  0.7466041  0.7607915

 Al 
  0.2661700  0.5041533  0.7604450

 Al 
  0.2559155  0.7425437  0.4932516

 Al 
  0.4872630  0.5099550  0.0077632

 Al 
  0.5069279  0.7350292  0.2501931

 Al 
  0.7604735  0.5192639  0.2522128

 Al 
  0.7633236  0.7436686  0.9943679

 Al 
  0.4919435  0.0006200  0.4912690

 Al 
  0.4924113  0.2332075  0.7478120

 Al 
  0.7486622  0.0215546  0.7363794

 Al 
  0.7424335  0.2492166  0.4931142

 Al 
  0.5004010  0.5021521  0.5020209

 Al 
  0.5000532  0.7421786  0.7468306

 Al 
  0.7499752  0.5045914  0.7489221

 Al 
  0.7337471  0.7595503  0.4998218

