32 
charge = 0 
 Al 
  0.9993094  0.0075875  0.0009096

 Al 
  0.9988404  0.2450708  0.2607247

 Al 
  0.2469209  0.9852928  0.2598015

 Al 
  0.2549007  0.2398000  0.0004616

 Al 
  0.4945423  0.9920709  0.9955052

 Al 
  0.4975868  0.2576679  0.2480521

 Al 
  0.7507413  0.0216512  0.2459173

 Al 
  0.7267313  0.2619536  0.9989295

 Al 
  0.0066457  0.4755346  0.9872098

 Al 
  0.9980508  0.7641330  0.2468294

 Al 
  0.2567311  0.5082174  0.2521298

 Al 
  0.2441698  0.7563400  0.9931167

 Al 
  0.0025828  0.9776657  0.5259022

 Al 
  0.0014578  0.2569959  0.7449705

 Al 
  0.2533711  0.9901651  0.7510334

 Al 
  0.2506101  0.2465979  0.5120737

 Al 
  0.0168420  0.5003044  0.4911056

 Al 
  0.0028909  0.7477031  0.7605985

 Al 
  0.2662319  0.5030630  0.7606269

 Al 
  0.2549899  0.7422380  0.4933370

 Al 
  0.4871702  0.5101691  0.0073981

 Al 
  0.5071172  0.7343362  0.2502624

 Al 
  0.7599698  0.5194174  0.2523774

 Al 
  0.7631380  0.7437515  0.9946995

 Al 
  0.4914794  0.0007054  0.4913135

 Al 
  0.4921167  0.2329464  0.7474915

 Al 
  0.7488973  0.0214655  0.7364512

 Al 
  0.7422900  0.2489592  0.4937243

 Al 
  0.5002017  0.5016014  0.5017536

 Al 
  0.5004492  0.7427169  0.7471635

 Al 
  0.7500037  0.5045938  0.7479766

 Al 
  0.7330219  0.7592817  0.5001510

