32 
charge = 0 
 Al 
  0.9987117  0.0040703  0.9941142

 Al 
  0.9962762  0.2409299  0.2603126

 Al 
  0.2435115  0.9825219  0.2591419

 Al 
  0.2479593  0.2363707  0.0029565

 Al 
  0.4924150  0.9948616  0.9941129

 Al 
  0.4970076  0.2548055  0.2485904

 Al 
  0.7482402  0.0170041  0.2457007

 Al 
  0.7263725  0.2612767  0.9967328

 Al 
  0.0060975  0.4807732  0.9915190

 Al 
  0.9926625  0.7601270  0.2448418

 Al 
  0.2560381  0.5145859  0.2546062

 Al 
  0.2425511  0.7529380  0.9898507

 Al 
  0.0073932  0.9778179  0.5255111

 Al 
  0.0035506  0.2578362  0.7497203

 Al 
  0.2507376  0.9868274  0.7510717

 Al 
  0.2504975  0.2517648  0.5127246

 Al 
  0.0201450  0.5003329  0.4940238

 Al 
  0.9982600  0.7371937  0.7618311

 Al 
  0.2649609  0.5125080  0.7584835

 Al 
  0.2633248  0.7451327  0.4931872

 Al 
  0.4886590  0.5079303  0.0101542

 Al 
  0.5052337  0.7418358  0.2494023

 Al 
  0.7645995  0.5172095  0.2508849

 Al 
  0.7640698  0.7434966  0.9917937

 Al 
  0.4958925  0.9999332  0.4910116

 Al 
  0.4948233  0.2362247  0.7505111

 Al 
  0.7466759  0.0213282  0.7366962

 Al 
  0.7438778  0.2519256  0.4884078

 Al 
  0.5021732  0.5060170  0.5041458

 Al 
  0.4971214  0.7385426  0.7445065

 Al 
  0.7496894  0.5043216  0.7562658

 Al 
  0.7404720  0.7615588  0.4971883

