32 
charge = 0 
 Al 
  0.9977130  0.0014776  0.9889139

 Al 
  0.9952069  0.2381998  0.2595948

 Al 
  0.2413643  0.9818338  0.2580355

 Al 
  0.2430028  0.2343188  0.0049317

 Al 
  0.4914794  0.9964804  0.9935931

 Al 
  0.4958727  0.2526088  0.2492797

 Al 
  0.7459556  0.0121281  0.2451908

 Al 
  0.7271930  0.2604376  0.9952453

 Al 
  0.0056742  0.4855972  0.9960980

 Al 
  0.9888409  0.7566828  0.2437899

 Al 
  0.2548698  0.5182281  0.2558302

 Al 
  0.2417455  0.7500631  0.9886219

 Al 
  0.0107816  0.9789961  0.5236758

 Al 
  0.0048946  0.2578226  0.7528390

 Al 
  0.2489419  0.9848522  0.7509851

 Al 
  0.2505742  0.2552757  0.5123187

 Al 
  0.0213145  0.5009368  0.4969024

 Al 
  0.9949928  0.7292547  0.7616418

 Al 
  0.2629585  0.5181724  0.7563673

 Al 
  0.2689112  0.7473826  0.4939817

 Al 
  0.4905153  0.5059923  0.0113385

 Al 
  0.5039565  0.7486709  0.2482922

 Al 
  0.7676786  0.5145253  0.2498305

 Al 
  0.7633347  0.7441278  0.9900079

 Al 
  0.4992377  0.9995805  0.4910363

 Al 
  0.4965546  0.2399324  0.7527449

 Al 
  0.7451030  0.0198357  0.7380031

 Al 
  0.7454619  0.2549230  0.4851715

 Al 
  0.5040221  0.5082521  0.5055913

 Al 
  0.4955708  0.7369425  0.7434050

 Al 
  0.7492525  0.5036669  0.7615935

 Al 
  0.7470249  0.7628026  0.4951488

