32 
charge = 0 
 Al 
  0.9985978  0.0036904  0.9933469

 Al 
  0.9960720  0.2405079  0.2602309

 Al 
  0.2431724  0.9823425  0.2590156

 Al 
  0.2472068  0.2360353  0.0032437

 Al 
  0.4922442  0.9951290  0.9940090

 Al 
  0.4968813  0.2544812  0.2486795

 Al 
  0.7479197  0.0163556  0.2456487

 Al 
  0.7264294  0.2611752  0.9964965

 Al 
  0.0060319  0.4814440  0.9921204

 Al 
  0.9920771  0.7596357  0.2446612

 Al 
  0.2558957  0.5151886  0.2548240

 Al 
  0.2424063  0.7525259  0.9895958

 Al 
  0.0079130  0.9779343  0.5253218

 Al 
  0.0037671  0.2578672  0.7502054

 Al 
  0.2504554  0.9865007  0.7510631

 Al 
  0.2504938  0.2523093  0.5127110

 Al 
  0.0203950  0.5003874  0.4944149

 Al 
  0.9977612  0.7360069  0.7618756

 Al 
  0.2647245  0.5134412  0.7581939

 Al 
  0.2641998  0.7454619  0.4932565

 Al 
  0.4888978  0.5076543  0.0103770

 Al 
  0.5050270  0.7427924  0.2492686

 Al 
  0.7650884  0.5168655  0.2507240

 Al 
  0.7640513  0.7435412  0.9915029

 Al 
  0.4963888  0.9998614  0.4909967

 Al 
  0.4951054  0.2367049  0.7508465

 Al 
  0.7464321  0.0211834  0.7368348

 Al 
  0.7440894  0.2523303  0.4878793

 Al 
  0.5024182  0.5064093  0.5043884

 Al 
  0.4968232  0.7382097  0.7442837

 Al 
  0.7496423  0.5042535  0.7571098

 Al 
  0.7413915  0.7617742  0.4968739

