32 
charge = 0 
 Al 
  0.9980471  0.0022041  0.9903507

 Al 
  0.9954284  0.2389263  0.2598337

 Al 
  0.2419249  0.9818969  0.2584030

 Al 
  0.2443382  0.2348324  0.0043785

 Al 
  0.4916885  0.9960794  0.9936946

 Al 
  0.4962564  0.2532152  0.2490706

 Al 
  0.7466116  0.0135897  0.2453715

 Al 
  0.7268576  0.2607099  0.9956240

 Al 
  0.0057844  0.4842013  0.9947107

 Al 
  0.9898569  0.7576580  0.2440411

 Al 
  0.2552398  0.5173271  0.2555529

 Al 
  0.2419261  0.7508737  0.9888384

 Al 
  0.0098795  0.9785778  0.5243144

 Al 
  0.0045542  0.2578796  0.7520160

 Al 
  0.2494060  0.9853374  0.7510148

 Al 
  0.2505235  0.2543513  0.5125056

 Al 
  0.0211190  0.5007128  0.4960522

 Al 
  0.9958678  0.7314155  0.7618162

 Al 
  0.2636095  0.5167739  0.7569860

 Al 
  0.2674533  0.7467539  0.4936860

 Al 
  0.4899498  0.5065418  0.0110861

 Al 
  0.5042745  0.7467031  0.2486523

 Al 
  0.7668927  0.5153544  0.2501126

 Al 
  0.7636912  0.7438716  0.9904547

 Al 
  0.4983169  0.9996411  0.4909980

 Al 
  0.4961240  0.2387963  0.7521397

 Al 
  0.7455163  0.0203715  0.7375588

 Al 
  0.7449854  0.2540345  0.4859784

 Al 
  0.5034615  0.5077360  0.5052436

 Al 
  0.4958752  0.7372197  0.7436068

 Al 
  0.7494047  0.5038983  0.7602186

 Al 
  0.7451364  0.7625155  0.4956908

