32 
charge = 0 
 Al 
  0.9983429  0.0029404  0.9918321

 Al 
  0.9957156  0.2396961  0.2600465

 Al 
  0.2425276  0.9820640  0.2587298

 Al 
  0.2457428  0.2354054  0.0038142

 Al 
  0.4919422  0.9956289  0.9938320

 Al 
  0.4965930  0.2538402  0.2488689

 Al 
  0.7472687  0.0150042  0.2455237

 Al 
  0.7266026  0.2609549  0.9960435

 Al 
  0.0059044  0.4828127  0.9933828

 Al 
  0.9909386  0.7586456  0.2443307

 Al 
  0.2555839  0.5163135  0.2552176

 Al 
  0.2421464  0.7516979  0.9891627

 Al 
  0.0089204  0.9782226  0.5248651

 Al 
  0.0041768  0.2578956  0.7511373

 Al 
  0.2499121  0.9858881  0.7510408

 Al 
  0.2504975  0.2533600  0.5126380

 Al 
  0.0208121  0.5005297  0.4952205

 Al 
  0.9967922  0.7336741  0.7618930

 Al 
  0.2641998  0.5151923  0.7575974

 Al 
  0.2658792  0.7461128  0.4934422

 Al 
  0.4894077  0.5070974  0.0107668

 Al 
  0.5046334  0.7447379  0.2489778

 Al 
  0.7660252  0.5161366  0.2504109

 Al 
  0.7639288  0.7436761  0.9909547

 Al 
  0.4973665  0.9997364  0.4909856

 Al 
  0.4956388  0.2377184  0.7515061

 Al 
  0.7459618  0.0208220  0.7371652

 Al 
  0.7445275  0.2531682  0.4868831

 Al 
  0.5029281  0.5071222  0.5048401

 Al 
  0.4962960  0.7376429  0.7439013

 Al 
  0.7495334  0.5040939  0.7587211

 Al 
  0.7432553  0.7621714  0.4962663

