32 
charge = 0 
 Al 
  0.9948530  0.9970422  0.9811767

 Al 
  0.9950337  0.2345032  0.2575726

 Al 
  0.2386837  0.9834092  0.2548970

 Al 
  0.2363992  0.2324477  0.0080838

 Al 
  0.4908915  0.9980310  0.9935473

 Al 
  0.4926241  0.2493738  0.2505730

 Al 
  0.7422479  0.0026905  0.2434496

 Al 
  0.7310071  0.2579959  0.9940770

 Al 
  0.0053030  0.4937862  0.0055393

 Al 
  0.9844154  0.7513415  0.2429657

 Al 
  0.2523390  0.5214878  0.2564848

 Al 
  0.2414534  0.7457069  0.9895797

 Al 
  0.0150290  0.9827694  0.5181885

 Al 
  0.0060839  0.2568103  0.7567917

 Al 
  0.2471029  0.9833325  0.7508378

 Al 
  0.2515148  0.2595107  0.5102198

 Al 
  0.0201983  0.5030159  0.5021595

 Al 
  0.9907938  0.7187404  0.7585181

 Al 
  0.2579563  0.5225942  0.7525679

 Al 
  0.2751881  0.7510643  0.4965138

 Al 
  0.4942156  0.5029256  0.0116814

 Al 
  0.5029355  0.7600725  0.2453171

 Al 
  0.7703827  0.5086023  0.2485335

 Al 
  0.7585565  0.7469506  0.9884177

 Al 
  0.5041743  0.0001176  0.4919880

 Al 
  0.4978714  0.2478454  0.7557126

 Al 
  0.7432986  0.0150067  0.7414398

 Al 
  0.7487637  0.2604487  0.4824439

 Al 
  0.5081815  0.5095094  0.5063648

 Al 
  0.4964680  0.7383558  0.7443332

 Al 
  0.7476969  0.5013749  0.7673358

 Al 
  0.7583375  0.7631343  0.4926860

