32 
charge = 0 
 Al 
  0.9959767  0.9985805  0.9836085

 Al 
  0.9949012  0.2356418  0.2583696

 Al 
  0.2394770  0.9825405  0.2561346

 Al 
  0.2383533  0.2328511  0.0070529

 Al 
  0.4909930  0.9976474  0.9934793

 Al 
  0.4938914  0.2503836  0.2501460

 Al 
  0.7434211  0.0059465  0.2441649

 Al 
  0.7293698  0.2589996  0.9942317

 Al 
  0.0053698  0.4911044  0.0021707

 Al 
  0.9855515  0.7530098  0.2431291

 Al 
  0.2532251  0.5207787  0.2564316

 Al 
  0.2414051  0.7470484  0.9888397

 Al 
  0.0138223  0.9812633  0.5203307

 Al 
  0.0058549  0.2572571  0.7556321

 Al 
  0.2475373  0.9835800  0.7508712

 Al 
  0.2510705  0.2583300  0.5110960

 Al 
  0.0210039  0.5021942  0.5003898

 Al 
  0.9920091  0.7217563  0.7599525

 Al 
  0.2598163  0.5218665  0.7538501

 Al 
  0.2735483  0.7498255  0.4955572

 Al 
  0.4929360  0.5039020  0.0117593

 Al 
  0.5031162  0.7563660  0.2464742

 Al 
  0.7698926  0.5107730  0.2488899

 Al 
  0.7606740  0.7457626  0.9887506

 Al 
  0.5026162  0.9997488  0.4915140

 Al 
  0.4976783  0.2449903  0.7548438

 Al 
  0.7437738  0.0169175  0.7401750

 Al 
  0.7475608  0.2585837  0.4829526

 Al 
  0.5066111  0.5094005  0.5063685

 Al 
  0.4956302  0.7373088  0.7436030

 Al 
  0.7483578  0.5023316  0.7658742

 Al 
  0.7545579  0.7633075  0.4933555

