32 
charge = 0 
 Al 
  0.9945423  0.9966388  0.9805864

 Al 
  0.9950918  0.2342260  0.2573524

 Al 
  0.2384969  0.9836753  0.2545518

 Al 
  0.2359438  0.2323796  0.0083412

 Al 
  0.4908755  0.9981127  0.9935733

 Al 
  0.4922776  0.2491300  0.2506769

 Al 
  0.7419682  0.0018601  0.2432479

 Al 
  0.7314811  0.2577075  0.9940795

 Al 
  0.0052955  0.4944483  0.0064192

 Al 
  0.9841889  0.7509443  0.2429385

 Al 
  0.2521138  0.5216116  0.2564786

 Al 
  0.2414880  0.7453913  0.9898297

 Al 
  0.0153012  0.9831890  0.5176019

 Al 
  0.0061148  0.2566841  0.7570615

 Al 
  0.2470199  0.9833115  0.7508341

 Al 
  0.2516472  0.2597755  0.5099735

 Al 
  0.0199285  0.5032387  0.5026014

 Al 
  0.9905141  0.7180659  0.7580998

 Al 
  0.2574662  0.5226622  0.7522437

 Al 
  0.2755322  0.7513811  0.4967662

 Al 
  0.4945423  0.5026880  0.0116380

 Al 
  0.5029107  0.7609834  0.2449990

 Al 
  0.7704334  0.5080244  0.2484555

 Al 
  0.7579390  0.7472873  0.9883632

 Al 
  0.5045567  0.0002438  0.4921353

 Al 
  0.4978825  0.2485978  0.7559131

 Al 
  0.7431971  0.0144795  0.7417727

 Al 
  0.7490854  0.2609165  0.4823808

 Al 
  0.5086097  0.5094958  0.5063227

 Al 
  0.4967638  0.7387060  0.7445844

 Al 
  0.7475063  0.5011014  0.7676353

 Al 
  0.7592879  0.7630427  0.4925437

