32 
charge = 0 
 Al 
  0.9951500  0.9974370  0.9817732

 Al 
  0.9949854  0.2347817  0.2577855

 Al 
  0.2388756  0.9831617  0.2552262

 Al 
  0.2368670  0.2325293  0.0078263

 Al 
  0.4909113  0.9979444  0.9935251

 Al 
  0.4929583  0.2496213  0.2504678

 Al 
  0.7425338  0.0035134  0.2436426

 Al 
  0.7305604  0.2582694  0.9940906

 Al 
  0.0053141  0.4931204  0.0046755

 Al 
  0.9846654  0.7517474  0.2429979

 Al 
  0.2525642  0.5213430  0.2564848

 Al 
  0.2414286  0.7460311  0.9893557

 Al 
  0.0147456  0.9823684  0.5187553

 Al 
  0.0060430  0.2569303  0.7565133

 Al 
  0.2471957  0.9833709  0.7508440

 Al 
  0.2513898  0.2592347  0.5104549

 Al 
  0.0204408  0.5027994  0.5017165

 Al 
  0.9910821  0.7194471  0.7589129

 Al 
  0.2584377  0.5224803  0.7528909

 Al 
  0.2748193  0.7507500  0.4962663

 Al 
  0.4938914  0.5031657  0.0117160

 Al 
  0.5029677  0.7591555  0.2456227

 Al 
  0.7703022  0.5091654  0.2486152

 Al 
  0.7591382  0.7466301  0.9884832

 Al 
  0.5037894  0.0000062  0.4918531

 Al 
  0.4978466  0.2471091  0.7555059

 Al 
  0.7434063  0.0155128  0.7411143

 Al 
  0.7484506  0.2599822  0.4825330

 Al 
  0.5077682  0.5095070  0.5063908

 Al 
  0.4962069  0.7380414  0.7441104

 Al 
  0.7478776  0.5016348  0.7670091

 Al 
  0.7573895  0.7632060  0.4928395

