32 
charge = 0 
 Al 
  0.9920771  0.9935461  0.9766682

 Al 
  0.9957118  0.2323548  0.2555356

 Al 
  0.2372840  0.9860403  0.2517214

 Al 
  0.2331221  0.2322930  0.0101393

 Al 
  0.4908272  0.9986003  0.9938171

 Al 
  0.4895525  0.2475174  0.2513378

 Al 
  0.7402480  0.9959606  0.2415771

 Al 
  0.7355453  0.2551879  0.9946141

 Al 
  0.0053153  0.4989679  0.0129239

 Al 
  0.9833102  0.7484258  0.2428766

 Al 
  0.2505272  0.5218826  0.2562584

 Al 
  0.2419806  0.7434298  0.9922739

 Al 
  0.0168816  0.9866418  0.5129239

 Al 
  0.0060084  0.2556544  0.7587446

 Al 
  0.2467106  0.9836060  0.7508564

 Al 
  0.2528080  0.2612965  0.5079625

 Al 
  0.0172665  0.5049304  0.5056037

 Al 
  0.9888124  0.7143768  0.7545852

 Al 
  0.2538377  0.5218987  0.7499554

 Al 
  0.2771868  0.7537300  0.4986201

 Al 
  0.4968851  0.5011039  0.0111108

 Al 
  0.5028947  0.7670685  0.2424830

 Al 
  0.7699149  0.5035753  0.2480261

 Al 
  0.7526187  0.7500248  0.9882865

 Al 
  0.5072039  0.0015111  0.4935300

 Al 
  0.4975335  0.2542820  0.7571296

 Al 
  0.7426897  0.0102495  0.7442132

 Al 
  0.7516014  0.2641057  0.4826828

 Al 
  0.5120303  0.5090614  0.5055715

 Al 
  0.4997772  0.7420635  0.7470930

 Al 
  0.7458814  0.4987798  0.7690337

 Al 
  0.7659559  0.7618323  0.4918457

