32 
charge = 0 
 Al 
  0.9924571  0.9940189  0.9772004

 Al 
  0.9956042  0.2326160  0.2558240

 Al 
  0.2374462  0.9856542  0.2521707

 Al 
  0.2334847  0.2322620  0.0098844

 Al 
  0.4908297  0.9985347  0.9937788

 Al 
  0.4899683  0.2477353  0.2512524

 Al 
  0.7404609  0.9968021  0.2418420

 Al 
  0.7348856  0.2556037  0.9944792

 Al 
  0.0053054  0.4983404  0.0119672

 Al 
  0.9833548  0.7487525  0.2428729

 Al 
  0.2507500  0.5219073  0.2563054

 Al 
  0.2418841  0.7436798  0.9918556

 Al 
  0.0166922  0.9860935  0.5136491

 Al 
  0.0060579  0.2558153  0.7585280

 Al 
  0.2467279  0.9835157  0.7508465

 Al 
  0.2526187  0.2611133  0.5082781

 Al 
  0.0177268  0.5046805  0.5051928

 Al 
  0.9890290  0.7147827  0.7551396

 Al 
  0.2543674  0.5221375  0.7502809

 Al 
  0.2770308  0.7533810  0.4983503

 Al 
  0.4965472  0.5013192  0.0112049

 Al 
  0.5028872  0.7662418  0.2428692

 Al 
  0.7700881  0.5042498  0.2480756

 Al 
  0.7534813  0.7495990  0.9882642

 Al 
  0.5068276  0.0012883  0.4932912

 Al 
  0.4976276  0.2534305  0.7569761

 Al 
  0.7427405  0.0109091  0.7438567

 Al 
  0.7512128  0.2636676  0.4825566

 Al 
  0.5114982  0.5091530  0.5057262

 Al 
  0.4992513  0.7414942  0.7466586

 Al 
  0.7461438  0.4991535  0.7689087

 Al 
  0.7650116  0.7620662  0.4919101

