32 
charge = 0 
 Al 
  0.9935461  0.9953740  0.9788575

 Al 
  0.9953158  0.2334117  0.2566309

 Al 
  0.2379560  0.9845874  0.2534305

 Al 
  0.2346567  0.2322583  0.0091134

 Al 
  0.4908445  0.9983355  0.9936686

 Al 
  0.4911688  0.2484172  0.2509764

 Al 
  0.7411712  0.9993404  0.2425858

 Al 
  0.7330615  0.2567385  0.9941946

 Al 
  0.0052893  0.4964173  0.0091406

 Al 
  0.9836543  0.7498020  0.2428865

 Al 
  0.2514306  0.5218541  0.2564180

 Al 
  0.2416452  0.7444928  0.9907331

 Al 
  0.0160499  0.9845577  0.5157158

 Al 
  0.0061383  0.2562720  0.7578288

 Al 
  0.2468318  0.9833412  0.7508316

 Al 
  0.2520964  0.2604958  0.5091716

 Al 
  0.0189508  0.5039416  0.5039156

 Al 
  0.9897319  0.7162529  0.7567088

 Al 
  0.2559415  0.5225979  0.7512636

 Al 
  0.2764022  0.7523600  0.4975459

 Al 
  0.4955361  0.5019900  0.0114536

 Al 
  0.5028773  0.7636639  0.2439805

 Al 
  0.7704062  0.5062014  0.2482476

 Al 
  0.7558698  0.7483837  0.9882642

 Al 
  0.5056965  0.0007029  0.4926538

 Al 
  0.4978219  0.2509480  0.7564749

 Al 
  0.7429385  0.0127803  0.7427986

 Al 
  0.7501052  0.2623088  0.4823474

 Al 
  0.5099859  0.5093758  0.5060975

 Al 
  0.4978578  0.7399572  0.7455015

 Al 
  0.7468714  0.5001931  0.7683840

 Al 
  0.7621516  0.7626479  0.4921774

