32 
charge = 0 
 Al 
  0.9912975  0.9925734  0.9756398

 Al 
  0.9959383  0.2318437  0.2549317

 Al 
  0.2369734  0.9868484  0.2507809

 Al 
  0.2324390  0.2324006  0.0106418

 Al 
  0.4908235  0.9987303  0.9938926

 Al 
  0.4887023  0.2470954  0.2514937

 Al 
  0.7398668  0.9942973  0.2410301

 Al 
  0.7369388  0.2543005  0.9949421

 Al 
  0.0053376  0.5001918  0.0148421

 Al 
  0.9833065  0.7478157  0.2428914

 Al 
  0.2500916  0.5217724  0.2561556

 Al 
  0.2422034  0.7429682  0.9931724

 Al 
  0.0172194  0.9877890  0.5114252

 Al 
  0.0058759  0.2553203  0.7591505

 Al 
  0.2466994  0.9838350  0.7508824

 Al 
  0.2532040  0.2616294  0.5073090

 Al 
  0.0162739  0.5054292  0.5063908

 Al 
  0.9884078  0.7137035  0.7534441

 Al 
  0.2527870  0.5212972  0.7493132

 Al 
  0.2774157  0.7544367  0.4991585

 Al 
  0.4975571  0.5006844  0.0109104

 Al 
  0.5029120  0.7686587  0.2416910

 Al 
  0.7694619  0.5021954  0.2479345

 Al 
  0.7508032  0.7508997  0.9883620

 Al 
  0.5079551  0.0019950  0.4940448

 Al 
  0.4973058  0.2560121  0.7574155

 Al 
  0.7426056  0.0088869  0.7449248

 Al 
  0.7524021  0.2649498  0.4830169

 Al 
  0.5131293  0.5088585  0.5052163

 Al 
  0.5009121  0.7432788  0.7480298

 Al 
  0.7453344  0.4979964  0.7692119

 Al 
  0.7678184  0.7613051  0.4917529

