32 
charge = 0 
 Al 
  0.9889176  0.9894869  0.9729593

 Al 
  0.9966326  0.2304329  0.2529565

 Al 
  0.2361801  0.9894399  0.2477093

 Al 
  0.2307720  0.2331085  0.0120056

 Al 
  0.4908136  0.9991770  0.9940585

 Al 
  0.4861591  0.2460064  0.2518328

 Al 
  0.7391788  0.9896874  0.2393112

 Al 
  0.7415573  0.2512462  0.9963690

 Al 
  0.0054032  0.5034899  0.0203653

 Al 
  0.9839934  0.7464049  0.2430003

 Al 
  0.2489592  0.5209680  0.2558302

 Al 
  0.2430647  0.7419249  0.9961994

 Al 
  0.0178890  0.9915549  0.5067002

 Al 
  0.0052275  0.2542646  0.7601183

 Al 
  0.2468343  0.9848906  0.7510272

 Al 
  0.2544874  0.2623558  0.5052448

 Al 
  0.0128447  0.5067905  0.5083387

 Al 
  0.9874313  0.7129028  0.7500087

 Al 
  0.2498453  0.5186352  0.7475459

 Al 
  0.2774813  0.7565616  0.5006794

 Al 
  0.4994765  0.4995730  0.0102755

 Al 
  0.5028798  0.7726981  0.2393099

 Al 
  0.7672788  0.4979642  0.2477229

 Al 
  0.7448666  0.7535543  0.9888372

 Al 
  0.5101715  0.0036929  0.4958542

 Al 
  0.4963343  0.2612148  0.7580912

 Al 
  0.7425028  0.0045815  0.7469593

 Al 
  0.7549403  0.2670833  0.4846691

 Al 
  0.5165784  0.5081902  0.5038402

 Al 
  0.5047795  0.7473454  0.7512103

 Al 
  0.7435758  0.4954433  0.7691896

 Al 
  0.7729481  0.7593275  0.4917801

