32 
charge = 0 
 Al 
  0.9870786  0.9868398  0.9713517

 Al 
  0.9971004  0.2294862  0.2512165

 Al 
  0.2357297  0.9915635  0.2450225

 Al 
  0.2298537  0.2341505  0.0128409

 Al 
  0.4907938  0.9996943  0.9940560

 Al 
  0.4842830  0.2453629  0.2519380

 Al 
  0.7392419  0.9866145  0.2379437

 Al 
  0.7456277  0.2483862  0.9979692

 Al 
  0.0053958  0.5056123  0.0242599

 Al 
  0.9852953  0.7458022  0.2431414

 Al 
  0.2483318  0.5198258  0.2556371

 Al 
  0.2439644  0.7414905  0.9988355

 Al 
  0.0180065  0.9948913  0.5027672

 Al 
  0.0044589  0.2533835  0.7605960

 Al 
  0.2470979  0.9861443  0.7512326

 Al 
  0.2555567  0.2626714  0.5035481

 Al 
  0.0097223  0.5075875  0.5092805

 Al 
  0.9869066  0.7137072  0.7475447

 Al 
  0.2478627  0.5156935  0.7464024

 Al 
  0.2769182  0.7582075  0.5017301

 Al 
  0.5008453  0.4988639  0.0098139

 Al 
  0.5026063  0.7749295  0.2375588

 Al 
  0.7646206  0.4945770  0.2475793

 Al 
  0.7398012  0.7555418  0.9895018

 Al 
  0.5119363  0.0052683  0.4975583

 Al 
  0.4952787  0.2652282  0.7584464

 Al 
  0.7425672  0.0010111  0.7483949

 Al 
  0.7570850  0.2681946  0.4866913

 Al 
  0.5193864  0.5077273  0.5024256

 Al 
  0.5081456  0.7508849  0.7539676

 Al 
  0.7421526  0.4932602  0.7686266

 Al 
  0.7763502  0.7573957  0.4921217

