32 
charge = 0 
 Al 
  0.9881541  0.9884288  0.9722402

 Al 
  0.9968393  0.2300233  0.2522647

 Al 
  0.2359735  0.9903062  0.2466375

 Al 
  0.2303537  0.2334761  0.0123818

 Al 
  0.4908074  0.9993614  0.9940770

 Al 
  0.4853671  0.2457180  0.2518947

 Al 
  0.7391280  0.9883558  0.2387468

 Al 
  0.7431798  0.2501275  0.9969717

 Al 
  0.0054106  0.5044181  0.0220261

 Al 
  0.9844414  0.7460967  0.2430511

 Al 
  0.2486671  0.5205572  0.2557386

 Al 
  0.2434087  0.7417034  0.9972588

 Al 
  0.0179855  0.9928791  0.5051099

 Al 
  0.0049416  0.2539082  0.7603460

 Al 
  0.2469259  0.9853559  0.7511002

 Al 
  0.2549218  0.2625105  0.5045555

 Al 
  0.0116071  0.5071581  0.5088003

 Al 
  0.9871888  0.7130649  0.7489543

 Al 
  0.2489901  0.5175189  0.7470447

 Al 
  0.2773142  0.7572422  0.5011287

 Al 
  0.5000557  0.4992649  0.0100775

 Al 
  0.5028068  0.7737290  0.2385686

 Al 
  0.7662975  0.4965794  0.2476647

 Al 
  0.7428234  0.7543909  0.9890736

 Al 
  0.5108881  0.0043141  0.4965224

 Al 
  0.4959334  0.2628768  0.7582545

 Al 
  0.7425127  0.0031335  0.7475707

 Al 
  0.7558017  0.2676118  0.4854153

 Al 
  0.5177244  0.5079848  0.5032969

 Al 
  0.5061358  0.7487662  0.7523241

 Al 
  0.7429892  0.4945646  0.7690164

 Al 
  0.7744233  0.7585738  0.4918853

