32 
charge = 0 
 Al 
  0.9867432  0.9863113  0.9711091

 Al 
  0.9971709  0.2293302  0.2508663

 Al 
  0.2356653  0.9919657  0.2444842

 Al 
  0.2297201  0.2344092  0.0129635

 Al 
  0.4907863  0.9998243  0.9940349

 Al 
  0.4839538  0.2452663  0.2519380

 Al 
  0.7393310  0.9861071  0.2376912

 Al 
  0.7464408  0.2477934  0.9983219

 Al 
  0.0053809  0.5059552  0.0249270

 Al 
  0.9856257  0.7457490  0.2431761

 Al 
  0.2482488  0.5195535  0.2556161

 Al 
  0.2441587  0.7414509  0.9993503

 Al 
  0.0179805  0.9955658  0.5020024

 Al 
  0.0042869  0.2532115  0.7606542

 Al 
  0.2471623  0.9864289  0.7512821

 Al 
  0.2557596  0.2627061  0.5032214

 Al 
  0.0090924  0.5076939  0.5093820

 Al 
  0.9868348  0.7140241  0.7471289

 Al 
  0.2475298  0.5150537  0.7462205

 Al 
  0.2767512  0.7585132  0.5019108

 Al 
  0.5010841  0.4987476  0.0097359

 Al 
  0.5025110  0.7752327  0.2372556

 Al 
  0.7640117  0.4939347  0.2475509

 Al 
  0.7388174  0.7558896  0.9896639

 Al 
  0.5122791  0.0055901  0.4979098

 Al 
  0.4950485  0.2659683  0.7584971

 Al 
  0.7425957  0.0003242  0.7486424

 Al 
  0.7575083  0.2683295  0.4871553

 Al 
  0.5199210  0.5076605  0.5021224

 Al 
  0.5087954  0.7515804  0.7544985

 Al 
  0.7418903  0.4928345  0.7684669

 Al 
  0.7769096  0.7569959  0.4922194

