32 
charge = 0 
 Al 
  0.9848040  0.9826234  0.9701896

 Al 
  0.9973962  0.2285939  0.2484147

 Al 
  0.2354661  0.9944953  0.2407678

 Al 
  0.2292213  0.2367197  0.0133236

 Al 
  0.4906935  0.0011188  0.9936921

 Al 
  0.4821940  0.2448616  0.2517326

 Al 
  0.7406911  0.9836308  0.2362334

 Al 
  0.7519950  0.2435127  0.0010160

 Al 
  0.0050950  0.5075627  0.0284120

 Al 
  0.9884993  0.7459915  0.2434941

 Al 
  0.2480867  0.5172578  0.2556928

 Al 
  0.2456364  0.7415710  0.0027127

 Al 
  0.0173333  0.0002995  0.4969296

 Al 
  0.0029293  0.2520692  0.7607161

 Al 
  0.2476833  0.9887233  0.7517016

 Al 
  0.2570355  0.2627444  0.5010928

 Al 
  0.0047696  0.5078659  0.5092508

 Al 
  0.9866653  0.7176118  0.7450955

 Al 
  0.2457811  0.5102445  0.7454099

 Al 
  0.2751720  0.7603893  0.5029046

 Al 
  0.5023984  0.4981276  0.0093832

 Al 
  0.5013885  0.7760148  0.2357247

 Al 
  0.7591481  0.4898235  0.2472959

 Al 
  0.7324650  0.7577125  0.9911155

 Al 
  0.5145983  0.0078424  0.5004121

 Al 
  0.4932837  0.2704495  0.7587112

 Al 
  0.7429706  0.9958987  0.7499171

 Al 
  0.7603968  0.2683691  0.4909101

 Al 
  0.5232984  0.5075157  0.4998515

 Al 
  0.5128645  0.7561593  0.7577781

 Al 
  0.7404015  0.4900240  0.7670276

 Al 
  0.7796359  0.7541780  0.4930919

