32 
charge = 0 
 Al 
  0.9850329  0.9831531  0.9702366

 Al 
  0.9973949  0.2286582  0.2487662

 Al 
  0.2354685  0.9941661  0.2412950

 Al 
  0.2292486  0.2363324  0.0133285

 Al 
  0.4907121  0.0008836  0.9937614

 Al 
  0.4823845  0.2448913  0.2517846

 Al 
  0.7404188  0.9838708  0.2364041

 Al 
  0.7512178  0.2441377  0.0006101

 Al 
  0.0051594  0.5074167  0.0280432

 Al 
  0.9880303  0.7458913  0.2434372

 Al 
  0.2480645  0.5176278  0.2556557

 Al 
  0.2454136  0.7415140  0.0022623

 Al 
  0.0174769  0.9996213  0.4976251

 Al 
  0.0031397  0.2522264  0.7607445

 Al 
  0.2476041  0.9883632  0.7516361

 Al 
  0.2568709  0.2627593  0.5013799

 Al 
  0.0053747  0.5079055  0.5093584

 Al 
  0.9866517  0.7169571  0.7452886

 Al 
  0.2459730  0.5109611  0.7454755

 Al 
  0.2754393  0.7601480  0.5027895

 Al 
  0.5022499  0.4981981  0.0094129

 Al 
  0.5016014  0.7760445  0.2358745

 Al 
  0.7599055  0.4903705  0.2473392

 Al 
  0.7333065  0.7575244  0.9908705

 Al 
  0.5142728  0.0075207  0.5000520

 Al 
  0.4935523  0.2698852  0.7586939

 Al 
  0.7428952  0.9964853  0.7497859

 Al 
  0.7599908  0.2684632  0.4903173

 Al 
  0.5228565  0.5074972  0.5001918

 Al 
  0.5123472  0.7555406  0.7573660

 Al 
  0.7405722  0.4904052  0.7672628

 Al 
  0.7793760  0.7545777  0.4929508

