32 
charge = 0 
 Al 
  0.9855416  0.9842062  0.9704161

 Al 
  0.9973603  0.2288290  0.2494654

 Al 
  0.2354995  0.9934756  0.2423506

 Al 
  0.2293451  0.2356170  0.0132803

 Al 
  0.4907443  0.0004690  0.9938803

 Al 
  0.4828263  0.2449780  0.2518662

 Al 
  0.7399510  0.9844636  0.2367865

 Al 
  0.7496473  0.2453740  0.9998181

 Al 
  0.0052634  0.5070417  0.0271769

 Al 
  0.9871504  0.7457564  0.2433370

 Al 
  0.2480657  0.5183246  0.2556074

 Al 
  0.2449792  0.7414385  0.0013304

 Al 
  0.0177120  0.9982662  0.4990434

 Al 
  0.0035431  0.2525469  0.7607631

 Al 
  0.2474494  0.9876764  0.7515086

 Al 
  0.2565232  0.2627692  0.5019714

 Al 
  0.0065987  0.5079204  0.5094859

 Al 
  0.9866640  0.7157876  0.7457725

 Al 
  0.2464123  0.5123670  0.7456562

 Al 
  0.2759319  0.7596394  0.5025345

 Al 
  0.5019133  0.4983553  0.0094933

 Al 
  0.5019739  0.7759653  0.2362457

 Al 
  0.7613583  0.4915029  0.2474184

 Al 
  0.7350601  0.7570739  0.9904200

 Al 
  0.5136169  0.0068771  0.4993342

 Al 
  0.4940721  0.2686810  0.7586481

 Al 
  0.7427689  0.9977056  0.7494716

 Al 
  0.7591728  0.2685498  0.4891911

 Al 
  0.5219308  0.5075009  0.5008552

 Al 
  0.5112420  0.7542671  0.7564811

 Al 
  0.7409571  0.4911886  0.7677058

 Al 
  0.7787251  0.7553834  0.4926823

