32 
charge = 0 
 Al 
  0.9842211  0.9810183  0.9702205

 Al 
  0.9973368  0.2284949  0.2473541

 Al 
  0.2355094  0.9954223  0.2391862

 Al 
  0.2292238  0.2380130  0.0131850

 Al 
  0.4906230  0.0019454  0.9934483

 Al 
  0.4817583  0.2448233  0.2515272

 Al 
  0.7416687  0.9831308  0.2358052

 Al 
  0.7542943  0.2416044  0.0022734

 Al 
  0.0048438  0.5078362  0.0292560

 Al 
  0.9900265  0.7464210  0.2436983

 Al 
  0.2482427  0.5160524  0.2558685

 Al 
  0.2463269  0.7418185  0.0039986

 Al 
  0.0167987  0.0023514  0.4948938

 Al 
  0.0022672  0.2516002  0.7605564

 Al 
  0.2479258  0.9898743  0.7519120

 Al 
  0.2574910  0.2626640  0.5002574

 Al 
  0.0029813  0.5076073  0.5087570

 Al 
  0.9867940  0.7198579  0.7447119

 Al 
  0.2452973  0.5080343  0.7453121

 Al 
  0.2742921  0.7610638  0.5031979

 Al 
  0.5027684  0.4979432  0.0093362

 Al 
  0.5006361  0.7756497  0.2354339

 Al 
  0.7567472  0.4882543  0.2471412

 Al 
  0.7300864  0.7581110  0.9919484

 Al 
  0.5155797  0.0088077  0.5014999

 Al 
  0.4924459  0.2719902  0.7587360

 Al 
  0.7432516  0.9942354  0.7501992

 Al 
  0.7616059  0.2678741  0.4928048

 Al 
  0.5245458  0.5076605  0.4987983

 Al 
  0.5142641  0.7579353  0.7588721

 Al 
  0.7399918  0.4889213  0.7662739

 Al 
  0.7801569  0.7529862  0.4935362

