32 
charge = 0 
 Al 
  0.9851307  0.9704148  0.9770816

 Al 
  0.9950535  0.2321865  0.2402257

 Al 
  0.2375204  0.9993924  0.2291520

 Al 
  0.2319452  0.2513527  0.0076209

 Al 
  0.4901342  0.0121801  0.9915970

 Al 
  0.4844451  0.2460559  0.2483602

 Al 
  0.7521583  0.9865502  0.2370415

 Al 
  0.7667603  0.2290270  0.0105205

 Al 
  0.0005025  0.5043488  0.0256114

 Al 
  0.0036100  0.7530890  0.2467922

 Al 
  0.2520865  0.5050554  0.2590342

 Al 
  0.2513291  0.7453888  0.0089501

 Al 
  0.0097866  0.0152084  0.4841889

 Al 
  0.9969853  0.2483342  0.7570516

 Al 
  0.2491349  0.9998416  0.7532300

 Al 
  0.2589760  0.2608039  0.4959123

 Al 
  0.9935288  0.5015061  0.5008094

 Al 
  0.9915388  0.7419979  0.7478776

 Al 
  0.2438010  0.4933271  0.7480570

 Al 
  0.2656057  0.7639325  0.5037337

 Al 
  0.5021373  0.4970917  0.0101530

 Al 
  0.4926773  0.7652171  0.2398916

 Al 
  0.7381095  0.4803673  0.2448876

 Al 
  0.7216388  0.7542510  0.0016385

 Al 
  0.5218665  0.0149201  0.5081716

 Al 
  0.4864895  0.2756943  0.7576816

 Al 
  0.7480607  0.9882295  0.7479085

 Al 
  0.7683172  0.2569266  0.5087916

 Al 
  0.5288426  0.5115304  0.4915549

 Al 
  0.5157616  0.7652047  0.7593028

 Al 
  0.7417442  0.4839637  0.7607086

 Al 
  0.7743193  0.7466128  0.4964643

