32 
charge = 0 
 Al 
  0.9848757  0.9708913  0.9764517

 Al 
  0.9952094  0.2317893  0.2405648

 Al 
  0.2373459  0.9992537  0.2296149

 Al 
  0.2317039  0.2505148  0.0080701

 Al 
  0.4901342  0.0115056  0.9916551

 Al 
  0.4840738  0.2459594  0.2485867

 Al 
  0.7515531  0.9861752  0.2367853

 Al 
  0.7663111  0.2295975  0.0101827

 Al 
  0.0008477  0.5046891  0.0261311

 Al 
  0.0028353  0.7526583  0.2465534

 Al 
  0.2518118  0.5057039  0.2588226

 Al 
  0.2510693  0.7451710  0.0088882

 Al 
  0.0102520  0.0146527  0.4845787

 Al 
  0.9972712  0.2485199  0.7573066

 Al 
  0.2490978  0.9992587  0.7531880

 Al 
  0.2589600  0.2609636  0.4960794

 Al 
  0.9938654  0.5019479  0.5013341

 Al 
  0.9911292  0.7407344  0.7475843

 Al 
  0.2438765  0.4939768  0.7478009

 Al 
  0.2661564  0.7638421  0.5037436

 Al 
  0.5023093  0.4971363  0.0100985

 Al 
  0.4931340  0.7659658  0.2394052

 Al 
  0.7390500  0.4806705  0.2450683

 Al 
  0.7217205  0.7546990  0.0009789

 Al 
  0.5215930  0.0146367  0.5078907

 Al 
  0.4867593  0.2758032  0.7578016

 Al 
  0.7476721  0.9882939  0.7481696

 Al 
  0.7680870  0.2577608  0.5079093

 Al 
  0.5288364  0.5112519  0.4918717

 Al 
  0.5160487  0.7650636  0.7595787

 Al 
  0.7414596  0.4840812  0.7609660

 Al 
  0.7749493  0.7468331  0.4963368

