32 
charge = 0 
 Al 
  0.9837929  0.9741609  0.9732006

 Al 
  0.9961598  0.2298488  0.2428184

 Al 
  0.2364462  0.9982847  0.2326939

 Al 
  0.2304403  0.2455609  0.0105440

 Al 
  0.4902369  0.0075491  0.9921687

 Al 
  0.4823090  0.2453827  0.2498701

 Al 
  0.7477811  0.9841963  0.2356901

 Al 
  0.7629164  0.2334625  0.0077224

 Al 
  0.0026929  0.5065257  0.0286471

 Al 
  0.9980694  0.7500619  0.2452626

 Al 
  0.2502141  0.5096208  0.2575578

 Al 
  0.2494406  0.7438233  0.0079637

 Al 
  0.0129697  0.0108027  0.4874734

 Al 
  0.9990570  0.2496213  0.7587619

 Al 
  0.2488058  0.9957514  0.7528291

 Al 
  0.2587211  0.2617804  0.4972724

 Al 
  0.9963900  0.5044812  0.5044305

 Al 
  0.9889622  0.7328783  0.7458962

 Al 
  0.2442589  0.4984654  0.7464383

 Al 
  0.2693641  0.7631491  0.5037486

 Al 
  0.5030209  0.4973937  0.0097248

 Al 
  0.4959891  0.7703084  0.2369697

 Al 
  0.7451896  0.4828115  0.2460237

 Al 
  0.7231399  0.7569403  0.9972056

 Al 
  0.5196760  0.0127630  0.5059155

 Al 
  0.4886243  0.2757116  0.7583684

 Al 
  0.7456054  0.9893260  0.7495186

 Al 
  0.7662702  0.2624004  0.5024058

 Al 
  0.5281855  0.5096245  0.4941018

 Al 
  0.5169274  0.7635674  0.7605972

 Al 
  0.7401577  0.4852111  0.7627197

 Al 
  0.7781842  0.7485335  0.4954619

