32 
charge = 0 
 Al 
  0.9863064  0.9687949  0.9797646

 Al 
  0.9944904  0.2339402  0.2390315

 Al 
  0.2382766  0.9999059  0.2275135

 Al 
  0.2329736  0.2546037  0.0058066

 Al 
  0.4902035  0.0147926  0.9914645

 Al 
  0.4860749  0.2464111  0.2474531

 Al 
  0.7543933  0.9880798  0.2382382

 Al 
  0.7681674  0.2270457  0.0115885

 Al 
  0.9990471  0.5029875  0.0233639

 Al 
  0.0065281  0.7546928  0.2477811

 Al 
  0.2531496  0.5025729  0.2598300

 Al 
  0.2523031  0.7461883  0.0089241

 Al 
  0.0079736  0.0171118  0.4829353

 Al 
  0.9959272  0.2476004  0.7560517

 Al 
  0.2492525  0.0020865  0.7533340

 Al 
  0.2589897  0.2601096  0.4953369

 Al 
  0.9924521  0.4997636  0.4987674

 Al 
  0.9932540  0.7466920  0.7489778

 Al 
  0.2434496  0.4911094  0.7491102

 Al 
  0.2634238  0.7642307  0.5036867

 Al 
  0.5013106  0.4968974  0.0103015

 Al 
  0.4909881  0.7623051  0.2419695

 Al 
  0.7347520  0.4793302  0.2441216

 Al 
  0.7217242  0.7523415  0.0042622

 Al 
  0.5227711  0.0159336  0.5091072

 Al 
  0.4855812  0.2749493  0.7571407

 Al 
  0.7496894  0.9882543  0.7468380

 Al 
  0.7689817  0.2535716  0.5120675

 Al 
  0.5285691  0.5125947  0.4905166

 Al 
  0.5142914  0.7654695  0.7579885

 Al 
  0.7430189  0.4837050  0.7598151

 Al 
  0.7716858  0.7459284  0.4969123

