32 
charge = 0 
 Al 
  0.9873125  0.9679162  0.9819031

 Al 
  0.9941637  0.2354005  0.2383323

 Al 
  0.2389028  0.0002772  0.2265222

 Al 
  0.2337904  0.2568734  0.0044812

 Al 
  0.4903346  0.0165982  0.9914670

 Al 
  0.4874004  0.2466215  0.2468009

 Al 
  0.7558264  0.9892010  0.2392938

 Al 
  0.7688023  0.2258960  0.0120625

 Al 
  0.9979036  0.5020222  0.0215670

 Al 
  0.0084798  0.7557250  0.2485459

 Al 
  0.2538723  0.5008626  0.2603485

 Al 
  0.2529627  0.7466908  0.0086332

 Al 
  0.0067163  0.0181748  0.4823128

 Al 
  0.9952490  0.2470657  0.7553500

 Al 
  0.2493132  0.0036582  0.7533427

 Al 
  0.2589538  0.2595329  0.4950040

 Al 
  0.9919088  0.4985211  0.4973281

 Al 
  0.9945832  0.7497537  0.7496671

 Al 
  0.2431204  0.4898743  0.7498948

 Al 
  0.2618336  0.7643929  0.5036570

 Al 
  0.5005680  0.4967378  0.0103237

 Al 
  0.4898990  0.7602841  0.2436154

 Al 
  0.7327236  0.4787288  0.2435189

 Al 
  0.7221697  0.7508465  0.0061569

 Al 
  0.5232241  0.0165598  0.5095985

 Al 
  0.4851084  0.2741077  0.7566779

 Al 
  0.7509492  0.9885241  0.7460608

 Al 
  0.7691909  0.2511262  0.5142010

 Al 
  0.5280593  0.5132939  0.4900030

 Al 
  0.5129239  0.7653879  0.7568499

 Al 
  0.7440770  0.4837273  0.7592990

 Al 
  0.7696760  0.7456203  0.4971808

