32 
charge = 0 
 Al 
  0.9883954  0.9673358  0.9841233

 Al 
  0.9939421  0.2369685  0.2378088

 Al 
  0.2395834  0.0006683  0.2257363

 Al 
  0.2346344  0.2589736  0.0032201

 Al 
  0.4905450  0.0182330  0.9915499

 Al 
  0.4887840  0.2467662  0.2461883

 Al 
  0.7570318  0.9902666  0.2404646

 Al 
  0.7690894  0.2250248  0.0122506

 Al 
  0.9967279  0.5011410  0.0197193

 Al 
  0.0102161  0.7565789  0.2493218

 Al 
  0.2545084  0.4992884  0.2607854

 Al 
  0.2535691  0.7470992  0.0081308

 Al 
  0.0055777  0.0189298  0.4819403

 Al 
  0.9946909  0.2465460  0.7547102

 Al 
  0.2493528  0.0051297  0.7532882

 Al 
  0.2588882  0.2589067  0.4947453

 Al 
  0.9915648  0.4973467  0.4959730

 Al 
  0.9959321  0.7524021  0.7502054

 Al 
  0.2427293  0.4889993  0.7506460

 Al 
  0.2602891  0.7645178  0.5036459

 Al 
  0.4997339  0.4965621  0.0102520

 Al 
  0.4889696  0.7584389  0.2452985

 Al 
  0.7311272  0.4782647  0.2429013

 Al 
  0.7228900  0.7493354  0.0079662

 Al 
  0.5234741  0.0170709  0.5099092

 Al 
  0.4848250  0.2730682  0.7561668

 Al 
  0.7522202  0.9889622  0.7453455

 Al 
  0.7691389  0.2487996  0.5160363

 Al 
  0.5273019  0.5138780  0.4897258

 Al 
  0.5113856  0.7651069  0.7556371

 Al 
  0.7451908  0.4839191  0.7589080

 Al 
  0.7676885  0.7454680  0.4973999

