32 
charge = 0 
 Al 
  0.9866318  0.9684694  0.9804676

 Al 
  0.9943716  0.2344154  0.2387790

 Al 
  0.2384795  0.0000297  0.2271595

 Al 
  0.2332422  0.2553784  0.0053586

 Al 
  0.4902393  0.0154126  0.9914559

 Al 
  0.4865093  0.2464878  0.2472316

 Al 
  0.7548958  0.9884585  0.2385761

 Al 
  0.7684186  0.2266311  0.0117779

 Al 
  0.9986696  0.5026570  0.0227724

 Al 
  0.0072026  0.7550554  0.2480348

 Al 
  0.2533996  0.5019875  0.2600106

 Al 
  0.2525296  0.7463653  0.0088523

 Al 
  0.0075429  0.0175004  0.4826976

 Al 
  0.9956883  0.2474209  0.7558116

 Al 
  0.2492760  0.0026224  0.7533439

 Al 
  0.2589810  0.2599228  0.4952168

 Al 
  0.9922467  0.4993416  0.4982786

 Al 
  0.9936946  0.7477588  0.7492228

 Al 
  0.2433469  0.4906564  0.7493738

 Al 
  0.2628880  0.7642901  0.5036756

 Al 
  0.5010730  0.4968455  0.0103188

 Al 
  0.4906069  0.7616120  0.2425127

 Al 
  0.7340280  0.4791137  0.2439223

 Al 
  0.7218393  0.7518464  0.0049032

 Al 
  0.5229444  0.0161551  0.5092916

 Al 
  0.4854030  0.2746931  0.7569922

 Al 
  0.7501077  0.9883236  0.7465744

 Al 
  0.7690795  0.2527449  0.5128112

 Al 
  0.5284280  0.5128397  0.4903198

 Al 
  0.5138570  0.7654658  0.7576197

 Al 
  0.7433642  0.4836939  0.7596282

 Al 
  0.7710150  0.7458071  0.4970076

