32 
charge = 0 
 Al 
  0.9869685  0.9681761  0.9811804

 Al 
  0.9942627  0.2349017  0.2385464

 Al 
  0.2386887  0.0001522  0.2268291

 Al 
  0.2335144  0.2561346  0.0049168

 Al 
  0.4902827  0.0160141  0.9914559

 Al 
  0.4869511  0.2465571  0.2470138

 Al 
  0.7553735  0.9888322  0.2389288

 Al 
  0.7686303  0.2262475  0.0119363

 Al 
  0.9982885  0.5023353  0.0221734

 Al 
  0.0078523  0.7554007  0.2482897

 Al 
  0.2536409  0.5014170  0.2601839

 Al 
  0.2527499  0.7465336  0.0087545

 Al 
  0.0071234  0.0178556  0.4824910

 Al 
  0.9954619  0.2472427  0.7555777

 Al 
  0.2492958  0.0031459  0.7533464

 Al 
  0.2589699  0.2597297  0.4951067

 Al 
  0.9920660  0.4989270  0.4977984

 Al 
  0.9941377  0.7487798  0.7494530

 Al 
  0.2432367  0.4902443  0.7496362

 Al 
  0.2623583  0.7643446  0.5036657

 Al 
  0.5008255  0.4967922  0.0103262

 Al 
  0.4902443  0.7609388  0.2430622

 Al 
  0.7333511  0.4789132  0.2437218

 Al 
  0.7219890  0.7513477  0.0055344

 Al 
  0.5230954  0.0163631  0.5094550

 Al 
  0.4852458  0.2744122  0.7568375

 Al 
  0.7505272  0.9884139  0.7463145

 Al 
  0.7691500  0.2519294  0.5135228

 Al 
  0.5282573  0.5130724  0.4901478

 Al 
  0.5134003  0.7654386  0.7572397

 Al 
  0.7437169  0.4837013  0.7594562

 Al 
  0.7703443  0.7457044  0.4970967

