32 
charge = 0 
 Al 
  0.9876665  0.9676897  0.9826345

 Al 
  0.9940783  0.2359116  0.2381392

 Al 
  0.2391231  0.0004047  0.2262376

 Al 
  0.2340689  0.2575924  0.0040530

 Al 
  0.4903965  0.0171625  0.9914856

 Al 
  0.4878558  0.2466771  0.2465918

 Al 
  0.7562534  0.9895636  0.2396713

 Al 
  0.7689359  0.2255755  0.0121578

 Al 
  0.9975150  0.5017177  0.0209556

 Al 
  0.0090812  0.7560306  0.2488033

 Al 
  0.2540939  0.5003230  0.2605032

 Al 
  0.2531706  0.7468380  0.0084884

 Al 
  0.0063227  0.0184607  0.4821618

 Al 
  0.9950485  0.2468912  0.7551297

 Al 
  0.2493280  0.0041594  0.7533315

 Al 
  0.2589352  0.2593300  0.4949099

 Al 
  0.9917739  0.4981214  0.4968677

 Al 
  0.9950312  0.7506819  0.7498651

 Al 
  0.2429979  0.4895438  0.7501497

 Al 
  0.2613150  0.7644386  0.5036508

 Al 
  0.5002995  0.4966809  0.0103114

 Al 
  0.4895723  0.7596493  0.2441736

 Al 
  0.7321444  0.4785592  0.2433147

 Al 
  0.7223813  0.7503428  0.0067695

 Al 
  0.5233305  0.0167417  0.5097223

 Al 
  0.4849933  0.2737822  0.7565133

 Al 
  0.7513725  0.9886540  0.7458146

 Al 
  0.7692020  0.2503366  0.5148458

 Al 
  0.5278340  0.5135018  0.4898842

 Al 
  0.5124276  0.7653148  0.7564527

 Al 
  0.7444433  0.4837731  0.7591555

 Al 
  0.7690090  0.7455534  0.4972588

