32 
charge = 0 
 Al 
  0.9854030  0.9699644  0.9777301

 Al 
  0.9949025  0.2326011  0.2399015

 Al 
  0.2377011  0.9995260  0.2287102

 Al 
  0.2321940  0.2521843  0.0071667

 Al 
  0.4901416  0.0128496  0.9915487

 Al 
  0.4848324  0.2461512  0.2481313

 Al 
  0.7527474  0.9869313  0.2373150

 Al 
  0.7671724  0.2284862  0.0108324

 Al 
  0.0001473  0.5040060  0.0250718

 Al 
  0.0043686  0.7535085  0.2470348

 Al 
  0.2523600  0.5044169  0.2592421

 Al 
  0.2515816  0.7456005  0.0089847

 Al 
  0.0093238  0.0157344  0.4838300

 Al 
  0.9967068  0.2481486  0.7567979

 Al 
  0.2491684  0.0004158  0.7532659

 Al 
  0.2589872  0.2606393  0.4957539

 Al 
  0.9932206  0.5010643  0.5002884

 Al 
  0.9919583  0.7432293  0.7481659

 Al 
  0.2437218  0.4927132  0.7483182

 Al 
  0.2650562  0.7640166  0.5037226

 Al 
  0.5019492  0.4970447  0.0102000

 Al 
  0.4922331  0.7644721  0.2403928

 Al 
  0.7372061  0.4800827  0.2447008

 Al 
  0.7216004  0.7537882  0.0023006

 Al 
  0.5221227  0.0151911  0.5084352

 Al 
  0.4862346  0.2755532  0.7575553

 Al 
  0.7484592  0.9881949  0.7476424

 Al 
  0.7685238  0.2560863  0.5096505

 Al 
  0.5288191  0.5118063  0.4912603

 Al 
  0.5154398  0.7653136  0.7590033

 Al 
  0.7420437  0.4838671  0.7604636

 Al 
  0.7736746  0.7464111  0.4965856

