32 
charge = 0 
 Al 
  0.9891515  0.9671130  0.9856529

 Al 
  0.9938605  0.2380748  0.2375538

 Al 
  0.2400735  0.0009529  0.2253218

 Al 
  0.2352136  0.2602829  0.0024194

 Al 
  0.4907319  0.0192268  0.9916452

 Al 
  0.4897344  0.2468219  0.2458059

 Al 
  0.7577113  0.9909435  0.2413086

 Al 
  0.7690993  0.2245904  0.0122197

 Al 
  0.9959247  0.5006089  0.0184632

 Al 
  0.0112618  0.7570430  0.2498478

 Al 
  0.2548797  0.4983095  0.2610292

 Al 
  0.2539478  0.7473182  0.0076853

 Al 
  0.0048908  0.0192701  0.4818214

 Al 
  0.9943889  0.2462032  0.7543203

 Al 
  0.2493676  0.0060628  0.7532177

 Al 
  0.2588300  0.2584587  0.4946079

 Al 
  0.9914299  0.4966004  0.4951116

 Al 
  0.9968417  0.7539540  0.7504715

 Al 
  0.2424311  0.4886070  0.7511237

 Al 
  0.2592755  0.7645834  0.5036520

 Al 
  0.4991312  0.4964371  0.0101455

 Al 
  0.4884337  0.7573053  0.2464371

 Al 
  0.7302955  0.4780246  0.2424855

 Al 
  0.7235063  0.7483243  0.0091245

 Al 
  0.5235261  0.0173494  0.5100193

 Al 
  0.4847421  0.2722774  0.7557967

 Al 
  0.7530692  0.9893297  0.7449136

 Al 
  0.7689582  0.2473244  0.5170982

 Al 
  0.5266633  0.5141961  0.4896701

 Al 
  0.5102829  0.7648248  0.7547993

 Al 
  0.7459581  0.4841357  0.7587112

 Al 
  0.7663829  0.7454445  0.4975236

