32 
charge = 0 
 Al 
  0.9957712  0.9697453  0.9990607

 Al 
  0.9951005  0.2483998  0.2378954

 Al 
  0.2452799  0.0044404  0.2249443

 Al 
  0.2402282  0.2682788  0.9973504

 Al 
  0.4935610  0.0243156  0.9931860

 Al 
  0.4978689  0.2459668  0.2437095

 Al 
  0.7601059  0.9955485  0.2495186

 Al 
  0.7649832  0.2243466  0.0080132

 Al 
  0.9890513  0.4981437  0.0078474

 Al 
  0.0170474  0.7577051  0.2543500

 Al 
  0.2563103  0.4921105  0.2615910

 Al 
  0.2566172  0.7476833  0.0016163

 Al 
  0.0017846  0.0180300  0.4837421

 Al 
  0.9942231  0.2435201  0.7523254

 Al 
  0.2493169  0.0126801  0.7516917

 Al 
  0.2580714  0.2537671  0.4942354

 Al 
  0.9921204  0.4914299  0.4890253

 Al 
  0.0044404  0.7615366  0.7500978

 Al 
  0.2391453  0.4900562  0.7537820

 Al 
  0.2512301  0.7648978  0.5041966

 Al 
  0.4932169  0.4952626  0.0074786

 Al 
  0.4860329  0.7507104  0.2557114

 Al 
  0.7292956  0.4778749  0.2394386

 Al 
  0.7313400  0.7403940  0.0171873

 Al 
  0.5205274  0.0178518  0.5084810

 Al 
  0.4869227  0.2640117  0.7519751

 Al 
  0.7596183  0.9932305  0.7433147

 Al 
  0.7634597  0.2382506  0.5212873

 Al 
  0.5181402  0.5144238  0.4926142

 Al 
  0.5001225  0.7606443  0.7479716

 Al 
  0.7523848  0.4880365  0.7582880

 Al 
  0.7566828  0.7467081  0.4980744

