32 
charge = 0 
 Al 
  0.9952787  0.9693184  0.9980434

 Al 
  0.9949124  0.2475929  0.2377531

 Al 
  0.2448220  0.0041112  0.2248057

 Al 
  0.2398495  0.2678444  0.9976375

 Al 
  0.4932887  0.0241164  0.9930461

 Al 
  0.4972600  0.2461029  0.2437936

 Al 
  0.7600824  0.9952465  0.2488614

 Al 
  0.7654708  0.2242129  0.0085120

 Al 
  0.9895624  0.4982191  0.0086431

 Al 
  0.0167541  0.7578276  0.2540072

 Al 
  0.2562905  0.4924731  0.2616269

 Al 
  0.2564366  0.7477241  0.0021670

 Al 
  0.0018625  0.0183122  0.4834699

 Al 
  0.9941055  0.2437095  0.7524083

 Al 
  0.2493255  0.0122358  0.7518514

 Al 
  0.2581432  0.2541718  0.4942292

 Al 
  0.9920029  0.4917665  0.4894250

 Al 
  0.0038785  0.7612061  0.7502488

 Al 
  0.2394164  0.4897245  0.7536793

 Al 
  0.2518192  0.7648829  0.5041297

 Al 
  0.4936884  0.4953505  0.0077756

 Al 
  0.4861195  0.7510606  0.2550455

 Al 
  0.7290901  0.4777919  0.2396181

 Al 
  0.7306396  0.7409448  0.0166712

 Al 
  0.5209445  0.0179187  0.5087149

 Al 
  0.4866158  0.2646837  0.7523006

 Al 
  0.7591728  0.9929397  0.7433048

 Al 
  0.7640698  0.2387258  0.5212205

 Al 
  0.5189322  0.5145500  0.4922256

 Al 
  0.5009022  0.7610316  0.7484518

 Al 
  0.7519219  0.4876417  0.7582818

 Al 
  0.7573387  0.7465645  0.4980508

