32 
charge = 0 
 Al 
  0.9933716  0.9679830  0.9941414

 Al 
  0.9943085  0.2445188  0.2373496

 Al 
  0.2431662  0.0029429  0.2245050

 Al 
  0.2383954  0.2659472  0.9988639

 Al 
  0.4923160  0.0230966  0.9925313

 Al 
  0.4949186  0.2465311  0.2442280

 Al 
  0.7598015  0.9940448  0.2463801

 Al 
  0.7671378  0.2238850  0.0102000

 Al 
  0.9915388  0.4986560  0.0116950

 Al 
  0.0154559  0.7580677  0.2527004

 Al 
  0.2561024  0.4940003  0.2616628

 Al 
  0.2557225  0.7478009  0.0041718

 Al 
  0.0023798  0.0191649  0.4825788

 Al 
  0.9938283  0.2444570  0.7528130

 Al 
  0.2493565  0.0104723  0.7524083

 Al 
  0.2583969  0.2556519  0.4942490

 Al 
  0.9916168  0.4931216  0.4910351

 Al 
  0.0017078  0.7596617  0.7506807

 Al 
  0.2404411  0.4887283  0.7531310

 Al 
  0.2540914  0.7648136  0.5039057

 Al 
  0.4954755  0.4956958  0.0087805

 Al 
  0.4865613  0.7525877  0.2524405

 Al 
  0.7286483  0.4775939  0.2403978

 Al 
  0.7280890  0.7431291  0.0145723

 Al 
  0.5222724  0.0180239  0.5094636

 Al 
  0.4856245  0.2672182  0.7534974

 Al 
  0.7573920  0.9917826  0.7434607

 Al 
  0.7661601  0.2408495  0.5206314

 Al 
  0.5217749  0.5148248  0.4909509

 Al 
  0.5038872  0.7624301  0.7503490

 Al 
  0.7501052  0.4862618  0.7582830

 Al 
  0.7599512  0.7460559  0.4979444

