32 
charge = 0 
 Al 
  0.9972662  0.9712415  0.0021719

 Al 
  0.9957403  0.2508824  0.2384139

 Al 
  0.2467514  0.0055034  0.2255198

 Al 
  0.2413878  0.2694644  0.9965497

 Al 
  0.4944372  0.0247537  0.9936216

 Al 
  0.4997302  0.2454953  0.2435313

 Al 
  0.7600639  0.9964531  0.2515519

 Al 
  0.7633793  0.2248663  0.0063623

 Al 
  0.9875068  0.4979951  0.0054094

 Al 
  0.0178419  0.7571865  0.2554044

 Al 
  0.2563054  0.4910772  0.2614153

 Al 
  0.2571581  0.7475212  0.9998775

 Al 
  0.0016794  0.0170326  0.4846654

 Al 
  0.9946958  0.2429484  0.7521150

 Al 
  0.2492946  0.0140043  0.7511732

 Al 
  0.2578362  0.2524813  0.4942713

 Al 
  0.9925127  0.4904312  0.4878434

 Al 
  0.0061470  0.7624004  0.7495582

 Al 
  0.2383125  0.4912381  0.7539874

 Al 
  0.2494282  0.7649361  0.5044169

 Al 
  0.4917665  0.4949978  0.0064898

 Al 
  0.4858311  0.7497512  0.2577137

 Al 
  0.7301247  0.4782090  0.2389572

 Al 
  0.7335639  0.7387642  0.0186996

 Al 
  0.5190758  0.0175462  0.5076692

 Al 
  0.4879758  0.2619363  0.7509356

 Al 
  0.7609314  0.9940882  0.7434731

 Al 
  0.7614376  0.2369957  0.5212886

 Al 
  0.5155846  0.5139028  0.4939347

 Al 
  0.4977402  0.7594080  0.7465423

 Al 
  0.7537696  0.4893248  0.7583053

 Al 
  0.7547250  0.7471647  0.4981350

