32 
charge = 0 
 Al 
  0.9938369  0.9682615  0.9950894

 Al 
  0.9944372  0.2452614  0.2374251

 Al 
  0.2435548  0.0032127  0.2245433

 Al 
  0.2387481  0.2664423  0.9985459

 Al 
  0.4925412  0.0233825  0.9926526

 Al 
  0.4954891  0.2464420  0.2441055

 Al 
  0.7599005  0.9943443  0.2469766

 Al 
  0.7667653  0.2239357  0.0098238

 Al 
  0.9910561  0.4985273  0.0109524

 Al 
  0.0157987  0.7580442  0.2530172

 Al 
  0.2561655  0.4936092  0.2616702

 Al 
  0.2558995  0.7477947  0.0037015

 Al 
  0.0022214  0.0189941  0.4827707

 Al 
  0.9938679  0.2442738  0.7527016

 Al 
  0.2493490  0.0109116  0.7522821

 Al 
  0.2583387  0.2553030  0.4942379

 Al 
  0.9916997  0.4927825  0.4906329

 Al 
  0.0022375  0.7600824  0.7506002

 Al 
  0.2401960  0.4889263  0.7532857

 Al 
  0.2535370  0.7648322  0.5039552

 Al 
  0.4950460  0.4956116  0.0085565

 Al 
  0.4864363  0.7521868  0.2530815

 Al 
  0.7287015  0.4776224  0.2401960

 Al 
  0.7286879  0.7425882  0.0150995

 Al 
  0.5219902  0.0180201  0.5093052

 Al 
  0.4858373  0.2666106  0.7532139

 Al 
  0.7578362  0.9920672  0.7433939

 Al 
  0.7656923  0.2402888  0.5208257

 Al 
  0.5211153  0.5147889  0.4912269

 Al 
  0.5031632  0.7621034  0.7498787

 Al 
  0.7505520  0.4865762  0.7582768

 Al 
  0.7593015  0.7461722  0.4979741

