32 
charge = 0 
 Al 
  0.9967662  0.9707081  0.0011274

 Al 
  0.9955151  0.2500483  0.2382271

 Al 
  0.2462452  0.0051371  0.2253020

 Al 
  0.2409992  0.2690906  0.9968059

 Al 
  0.4941364  0.0246349  0.9934743

 Al 
  0.4991052  0.2456623  0.2435771

 Al 
  0.7600960  0.9961524  0.2508663

 Al 
  0.7639350  0.2246733  0.0069365

 Al 
  0.9880216  0.4980310  0.0062287

 Al 
  0.0175920  0.7573833  0.2550493

 Al 
  0.2563178  0.4914113  0.2614846

 Al 
  0.2569786  0.7475818  0.0004703

 Al 
  0.0016930  0.0173890  0.4843411

 Al 
  0.9945188  0.2431377  0.7521781

 Al 
  0.2493008  0.0135649  0.7513514

 Al 
  0.2579179  0.2529206  0.4942565

 Al 
  0.9923766  0.4907604  0.4882320

 Al 
  0.0055752  0.7621343  0.7497512

 Al 
  0.2385921  0.4908148  0.7539379

 Al 
  0.2500322  0.7649250  0.5043401

 Al 
  0.4922541  0.4950856  0.0068351

 Al 
  0.4858893  0.7500557  0.2570479

 Al 
  0.7298141  0.4780840  0.2391070

 Al 
  0.7328041  0.7393013  0.0182033

 Al 
  0.5195931  0.0176662  0.5079563

 Al 
  0.4876033  0.2626355  0.7512908

 Al 
  0.7604982  0.9938072  0.7433988

 Al 
  0.7621405  0.2373843  0.5213220

 Al 
  0.5164633  0.5141008  0.4934706

 Al 
  0.4985397  0.7598312  0.7470162

 Al 
  0.7533105  0.4888793  0.7583003

 Al 
  0.7553735  0.7470088  0.4981152

