32 
charge = 0 
 Al 
  0.9977650  0.9718071  0.0032164

 Al 
  0.9959754  0.2517177  0.2386144

 Al 
  0.2472712  0.0058809  0.2257636

 Al 
  0.2417776  0.2698134  0.9963046

 Al 
  0.4947453  0.0248428  0.9937689

 Al 
  0.5003564  0.2453208  0.2434991

 Al 
  0.7600156  0.9967539  0.2522412

 Al 
  0.7628063  0.2250767  0.0057658

 Al 
  0.9869957  0.4979716  0.0045889

 Al 
  0.0180771  0.7569662  0.2557609

 Al 
  0.2562843  0.4907566  0.2613348

 Al 
  0.2573363  0.7474556  0.9992773

 Al 
  0.0016880  0.0166551  0.4850045

 Al 
  0.9948901  0.2427603  0.7520581

 Al 
  0.2492884  0.0144399  0.7509888

 Al 
  0.2577521  0.2520346  0.4942899

 Al 
  0.9926551  0.4901045  0.4874610

 Al 
  0.0067163  0.7626454  0.7493528

 Al 
  0.2380328  0.4916885  0.7540184

 Al 
  0.2488231  0.7649448  0.5044948

 Al 
  0.4912801  0.4949124  0.0061296

 Al 
  0.4857829  0.7494629  0.2583758

 Al 
  0.7304663  0.4783451  0.2388211

 Al 
  0.7343399  0.7382357  0.0191847

 Al 
  0.5185263  0.0174063  0.5073660

 Al 
  0.4883669  0.2612346  0.7505718

 Al 
  0.7613559  0.9943604  0.7435696

 Al 
  0.7607086  0.2366418  0.5212205

 Al 
  0.5146812  0.5136800  0.4944223

 Al 
  0.4969407  0.7589748  0.7460745

 Al 
  0.7542226  0.4897864  0.7583078

 Al 
  0.7540815  0.7473232  0.4981536

