32 
charge = 0 
 Al 
  0.0006101  0.9757524  0.0092508

 Al 
  0.9975125  0.2565393  0.2400067

 Al 
  0.2505680  0.0082471  0.2277325

 Al 
  0.2440052  0.2713145  0.9951215

 Al 
  0.4966499  0.0247104  0.9946216

 Al 
  0.5040060  0.2441872  0.2436228

 Al 
  0.7594129  0.9984902  0.2562769

 Al 
  0.7592013  0.2266707  0.0019256

 Al 
  0.9841654  0.4980694  0.9997958

 Al 
  0.0191340  0.7552151  0.2578350

 Al 
  0.2559750  0.4891565  0.2606542

 Al 
  0.2583251  0.7470199  0.9956698

 Al 
  0.0021583  0.0140884  0.4872457

 Al 
  0.9963764  0.2417269  0.7518365

 Al 
  0.2492872  0.0168667  0.7498688

 Al 
  0.2571902  0.2492946  0.4944508

 Al 
  0.9935436  0.4883001  0.4854265

 Al 
  0.0099500  0.7636949  0.7479815

 Al 
  0.2364437  0.4948010  0.7537473

 Al 
  0.2453195  0.7649423  0.5049663

 Al 
  0.4885117  0.4944656  0.0037634

 Al 
  0.4856765  0.7481226  0.2620798

 Al 
  0.7330392  0.4793748  0.2383508

 Al 
  0.7390958  0.7354240  0.0217811

 Al 
  0.5146899  0.0161799  0.5053116

 Al 
  0.4910227  0.2571407  0.7483107

 Al 
  0.7636293  0.9957453  0.7445993

 Al 
  0.7560294  0.2353039  0.5201339

 Al 
  0.5089760  0.5118608  0.4976796

 Al 
  0.4923308  0.7562992  0.7434904

 Al 
  0.7566828  0.4927442  0.7582026

 Al 
  0.7504802  0.7482501  0.4982625

