32 
charge = 0 
 Al 
  0.0029825  0.9802386  0.0143260

 Al 
  0.9990582  0.2604760  0.2414930

 Al 
  0.2538587  0.0105317  0.2303661

 Al 
  0.2457972  0.2716759  0.9944545

 Al 
  0.4984394  0.0234332  0.9953035

 Al 
  0.5071692  0.2431291  0.2442911

 Al 
  0.7584575  0.0000198  0.2597112

 Al 
  0.7557794  0.2286483  0.9981078

 Al 
  0.9821556  0.4984407  0.9956760

 Al 
  0.0195795  0.7529825  0.2595824

 Al 
  0.2554762  0.4882246  0.2597112

 Al 
  0.2590639  0.7466660  0.9925066

 Al 
  0.0031657  0.0114041  0.4895698

 Al 
  0.9981734  0.2409943  0.7517338

 Al 
  0.2493825  0.0187664  0.7489134

 Al 
  0.2565554  0.2467823  0.4946389

 Al 
  0.9943765  0.4868979  0.4840788

 Al 
  0.0125192  0.7641144  0.7466450

 Al 
  0.2351790  0.4981597  0.7526917

 Al 
  0.2423779  0.7647864  0.5053277

 Al 
  0.4863905  0.4942255  0.0012982

 Al 
  0.4858485  0.7474432  0.2649795

 Al 
  0.7360576  0.4806012  0.2385897

 Al 
  0.7435176  0.7335714  0.0236300

 Al 
  0.5103200  0.0143508  0.5031199

 Al 
  0.4939075  0.2536508  0.7461277

 Al 
  0.7652084  0.9965373  0.7462465

 Al 
  0.7514145  0.2353658  0.5181080

 Al 
  0.5033191  0.5093807  0.5011188

 Al 
  0.4885105  0.7537671  0.7414942

 Al 
  0.7584068  0.4957391  0.7577422

 Al 
  0.7475496  0.7489914  0.4984209

