32 
charge = 0 
 Al 
  0.0048599  0.9849649  0.0182070

 Al 
  0.0004789  0.2632085  0.2428741

 Al 
  0.2569242  0.0125588  0.2334711

 Al 
  0.2470125  0.2709507  0.9942107

 Al 
  0.4999752  0.0211227  0.9957601

 Al 
  0.5097235  0.2423407  0.2454235

 Al 
  0.7573313  0.0013254  0.2623249

 Al 
  0.7528328  0.2308797  0.9946302

 Al 
  0.9812633  0.4988961  0.9924373

 Al 
  0.0194978  0.7505148  0.2608621

 Al 
  0.2549168  0.4879548  0.2585899

 Al 
  0.2594834  0.7465546  0.9900747

 Al 
  0.0044453  0.0089340  0.4917727

 Al 
  0.0000458  0.2406700  0.7516150

 Al 
  0.2496176  0.0200200  0.7482922

 Al 
  0.2558264  0.2447329  0.4947911

 Al 
  0.9950881  0.4859574  0.4835973

 Al 
  0.0142270  0.7640822  0.7455819

 Al 
  0.2342978  0.5013576  0.7509319

 Al 
  0.2401911  0.7644188  0.5054861

 Al 
  0.4851641  0.4942664  0.9989060

 Al 
  0.4862334  0.7472786  0.2669385

 Al 
  0.7391070  0.4818709  0.2395847

 Al 
  0.7472613  0.7328449  0.0246844

 Al 
  0.5057646  0.0120118  0.5010173

 Al 
  0.4967984  0.2509133  0.7441859

 Al 
  0.7660066  0.9967353  0.7482736

 Al 
  0.7472972  0.2366331  0.5154584

 Al 
  0.4980521  0.5064217  0.5044206

 Al 
  0.4857099  0.7515519  0.7401280

 Al 
  0.7592434  0.4985867  0.7567620

 Al 
  0.7453220  0.7494406  0.4987043

