32 
charge = 0 
 Al 
  0.0036545  0.9817893  0.0157455

 Al 
  0.9995458  0.2615217  0.2419682

 Al 
  0.2549069  0.0112371  0.2313512

 Al 
  0.2462663  0.2715484  0.9943332

 Al 
  0.4989790  0.0227736  0.9954792

 Al 
  0.5080850  0.2428320  0.2446216

 Al 
  0.7580949  0.0004777  0.2606703

 Al 
  0.7547436  0.2293636  0.9969086

 Al 
  0.9817274  0.4985904  0.9945015

 Al 
  0.0196055  0.7521806  0.2600614

 Al 
  0.2552931  0.4880662  0.2593560

 Al 
  0.2592409  0.7465955  0.9916130

 Al 
  0.0035716  0.0105515  0.4903198

 Al 
  0.9987946  0.2408383  0.7517016

 Al 
  0.2494443  0.0192565  0.7486647

 Al 
  0.2563264  0.2460435  0.4946958

 Al 
  0.9946265  0.4865341  0.4838189

 Al 
  0.0131850  0.7641453  0.7462539

 Al 
  0.2348460  0.4992525  0.7521793

 Al 
  0.2415660  0.7646911  0.5054057

 Al 
  0.4858794  0.4942057  0.0004925

 Al 
  0.4859561  0.7473405  0.2657331

 Al 
  0.7370798  0.4810220  0.2388372

 Al 
  0.7448418  0.7332038  0.0240656

 Al 
  0.5088176  0.0136268  0.5024046

 Al 
  0.4948728  0.2526595  0.7454520

 Al 
  0.7655586  0.9966648  0.7468888

 Al 
  0.7499827  0.2356666  0.5172838

 Al 
  0.5015210  0.5084451  0.5022412

 Al 
  0.4874660  0.7529937  0.7409732

 Al 
  0.7587842  0.4967044  0.7574811

 Al 
  0.7467365  0.7491758  0.4984976

