32 
charge = 0 
 Al 
  0.0072212  0.9927974  0.0223306

 Al 
  0.0024999  0.2651490  0.2447069

 Al 
  0.2611962  0.0151824  0.2391144

 Al 
  0.2479184  0.2679966  0.9943728

 Al 
  0.5019232  0.0156453  0.9961202

 Al 
  0.5126838  0.2418333  0.2478714

 Al 
  0.7554663  0.0030135  0.2649856

 Al 
  0.7490582  0.2349673  0.9898854

 Al 
  0.9822410  0.4994876  0.9888780

 Al 
  0.0185362  0.7464185  0.2618992

 Al 
  0.2540963  0.4886503  0.2564960

 Al 
  0.2594624  0.7470583  0.9877679

 Al 
  0.0065640  0.0056730  0.4949272

 Al 
  0.0028897  0.2410537  0.7511460

 Al 
  0.2503131  0.0207143  0.7481300

 Al 
  0.2543500  0.2425660  0.4949012

 Al 
  0.9959965  0.4853386  0.4846951

 Al 
  0.0152393  0.7634560  0.7446513

 Al 
  0.2335367  0.5056841  0.7469989

 Al 
  0.2382048  0.7632927  0.5052312

 Al 
  0.4850007  0.4948864  0.9952515

 Al 
  0.4871652  0.7476004  0.2683506

 Al 
  0.7436389  0.4838795  0.2426167

 Al 
  0.7517994  0.7338758  0.0249592

 Al 
  0.4984766  0.0074105  0.4980694

 Al 
  0.5012499  0.2477959  0.7417195

 Al 
  0.7658717  0.9961252  0.7518304

 Al 
  0.7419385  0.2404485  0.5105020

 Al 
  0.4904893  0.5009913  0.5090825

 Al 
  0.4831964  0.7486968  0.7390179

 Al 
  0.7588869  0.5028068  0.7539676

 Al 
  0.7428890  0.7495037  0.4995211

