32 
charge = 0 
 Al 
  0.0059391  0.9882914  0.0202453

 Al 
  0.0013774  0.2643792  0.2437194

 Al 
  0.2588560  0.0137778  0.2358126

 Al 
  0.2475323  0.2699124  0.9942181

 Al 
  0.5008774  0.0190114  0.9959606

 Al 
  0.5111467  0.2420029  0.2464049

 Al 
  0.7565257  0.0021051  0.2636676

 Al 
  0.7510903  0.2325504  0.9924769

 Al 
  0.9813388  0.4991832  0.9906960

 Al 
  0.0191934  0.7487624  0.2614536

 Al 
  0.2545431  0.4881045  0.2577348

 Al 
  0.2595763  0.7466648  0.9888557

 Al 
  0.0053710  0.0074303  0.4931798

 Al 
  0.0013032  0.2407034  0.7514653

 Al 
  0.2498688  0.0205052  0.7480991

 Al 
  0.2552460  0.2436365  0.4948592

 Al 
  0.9955076  0.4855675  0.4837954

 Al 
  0.0149027  0.7638793  0.7450658

 Al 
  0.2338869  0.5033488  0.7493849

 Al 
  0.2391268  0.7640203  0.5054552

 Al 
  0.4848473  0.4944607  0.9973170

 Al 
  0.4865935  0.7473628  0.2677751

 Al 
  0.7411131  0.4827348  0.2406886

 Al 
  0.7494084  0.7329810  0.0249901

 Al 
  0.5026212  0.0101517  0.4996807

 Al 
  0.4987402  0.2494196  0.7430288

 Al 
  0.7661366  0.9965868  0.7497785

 Al 
  0.7448208  0.2380526  0.5134078

 Al 
  0.4946896  0.5041768  0.5065269

 Al 
  0.4843622  0.7502302  0.7395117

 Al 
  0.7593201  0.5004406  0.7557435

 Al 
  0.7441352  0.7495631  0.4989988

