32 
charge = 0 
 Al 
  0.0056767  0.9874412  0.0197701

 Al 
  0.0011546  0.2641330  0.2435139

 Al 
  0.2583783  0.0134820  0.2352037

 Al 
  0.2474209  0.2702131  0.9942057

 Al 
  0.5006596  0.0195844  0.9959173

 Al 
  0.5108089  0.2420722  0.2461438

 Al 
  0.7567311  0.0019157  0.2633582

 Al 
  0.7515135  0.2321147  0.9930065

 Al 
  0.9812683  0.4991139  0.9911044

 Al 
  0.0192874  0.7492104  0.2613249

 Al 
  0.2546359  0.4880427  0.2579575

 Al 
  0.2595676  0.7466215  0.9891317

 Al 
  0.0051371  0.0077966  0.4928308

 Al 
  0.0009888  0.2406750  0.7515098

 Al 
  0.2497983  0.0204099  0.7481300

 Al 
  0.2554007  0.2438914  0.4948456

 Al 
  0.9954062  0.4856480  0.4837050

 Al 
  0.0147678  0.7639411  0.7451797

 Al 
  0.2339785  0.5028625  0.7498008

 Al 
  0.2393644  0.7641342  0.5054750

 Al 
  0.4848906  0.4944000  0.9977167

 Al 
  0.4864957  0.7473306  0.2675981

 Al 
  0.7406119  0.4825157  0.2403780

 Al 
  0.7488936  0.7328994  0.0249418

 Al 
  0.5034181  0.0106418  0.5000111

 Al 
  0.4982513  0.2497735  0.7433085

 Al 
  0.7661329  0.9966437  0.7493911

 Al 
  0.7454235  0.2376566  0.5139424

 Al 
  0.4955262  0.5047609  0.5060059

 Al 
  0.4846629  0.7505507  0.7396466

 Al 
  0.7593362  0.4999765  0.7560294

 Al 
  0.7444136  0.7495471  0.4989159

