32 
charge = 0 
 Al 
  0.0090590  0.9999666  0.0245557

 Al 
  0.0041533  0.2649361  0.2459940

 Al 
  0.2643260  0.0168853  0.2445151

 Al 
  0.2481065  0.2641503  0.9948060

 Al 
  0.5033427  0.0093832  0.9962304

 Al 
  0.5143990  0.2422034  0.2502983

 Al 
  0.7539132  0.0041570  0.2662455

 Al 
  0.7463554  0.2392184  0.9863633

 Al 
  0.9851505  0.4997599  0.9868917

 Al 
  0.0170425  0.7428073  0.2619177

 Al 
  0.2535518  0.4901243  0.2543438

 Al 
  0.2587879  0.7481610  0.9871269

 Al 
  0.0081890  0.0033971  0.4974234

 Al 
  0.0051087  0.2421836  0.7503725

 Al 
  0.2512264  0.0201809  0.7487463

 Al 
  0.2526608  0.2416972  0.4948913

 Al 
  0.9966326  0.4855403  0.4873373

 Al 
  0.0146849  0.7625687  0.7445510

 Al 
  0.2333214  0.5085862  0.7428073

 Al 
  0.2376900  0.7616999  0.5044750

 Al 
  0.4862371  0.4957910  0.9920895

 Al 
  0.4882147  0.7480286  0.2682788

 Al 
  0.7472984  0.4857334  0.2464321

 Al 
  0.7547423  0.7366145  0.0241473

 Al 
  0.4921972  0.0026719  0.4959903

 Al 
  0.5049502  0.2457750  0.7401688

 Al 
  0.7646961  0.9949928  0.7550072

 Al 
  0.7382419  0.2449644  0.5057547

 Al 
  0.4844117  0.4957428  0.5124684

 Al 
  0.4825306  0.7467403  0.7387877

 Al 
  0.7572744  0.5063512  0.7503886

 Al 
  0.7415017  0.7489864  0.5005903

