32 
charge = 0 
 Al 
  0.0120774  0.0128719  0.0262475

 Al 
  0.0069341  0.2615700  0.2479469

 Al 
  0.2679855  0.0182293  0.2541384

 Al 
  0.2482860  0.2558376  0.9957688

 Al 
  0.5056656  0.9959742  0.9963876

 Al 
  0.5155351  0.2448517  0.2541966

 Al 
  0.7516460  0.0052621  0.2669014

 Al 
  0.7425684  0.2484110  0.9815034

 Al 
  0.9936835  0.4997995  0.9851988

 Al 
  0.0130724  0.7367791  0.2601542

 Al 
  0.2530927  0.4941909  0.2498391

 Al 
  0.2561643  0.7512165  0.9887419

 Al 
  0.0099005  0.0003292  0.5013737

 Al 
  0.0080998  0.2454470  0.7483404

 Al 
  0.2533340  0.0169534  0.7511757

 Al 
  0.2487761  0.2423160  0.4949483

 Al 
  0.9975608  0.4874326  0.4948728

 Al 
  0.0109524  0.7605527  0.7457638

 Al 
  0.2336976  0.5114871  0.7350205

 Al 
  0.2388805  0.7573796  0.5019380

 Al 
  0.4905277  0.4976771  0.9865823

 Al 
  0.4905562  0.7482179  0.2657344

 Al 
  0.7531904  0.4898297  0.2546198

 Al 
  0.7586085  0.7445696  0.0210423

 Al 
  0.4821704  0.9933394  0.4940993

 Al 
  0.5105700  0.2427145  0.7388409

 Al 
  0.7610205  0.9922776  0.7601913

 Al 
  0.7338746  0.2541842  0.4972860

 Al 
  0.4748156  0.4862965  0.5163544

 Al 
  0.4840862  0.7443394  0.7394498

 Al 
  0.7524145  0.5123806  0.7423506

 Al 
  0.7402567  0.7472823  0.5029912

