32 
charge = 0 
 Al 
  0.0124734  0.0147196  0.0262289

 Al 
  0.0073202  0.2608101  0.2482513

 Al 
  0.2682169  0.0181724  0.2554428

 Al 
  0.2484184  0.2545332  0.9959148

 Al 
  0.5059960  0.9937998  0.9964494

 Al 
  0.5154262  0.2455039  0.2546223

 Al 
  0.7513997  0.0052893  0.2668606

 Al 
  0.7421341  0.2499765  0.9809750

 Al 
  0.9952577  0.4997760  0.9851431

 Al 
  0.0123199  0.7359933  0.2596839

 Al 
  0.2530976  0.4949248  0.2490892

 Al 
  0.2555975  0.7517648  0.9892976

 Al 
  0.0099488  0.9999641  0.5019046

 Al 
  0.0083882  0.2460262  0.7479716

 Al 
  0.2536743  0.0162084  0.7516670

 Al 
  0.2480942  0.2426588  0.4950077

 Al 
  0.9976870  0.4878991  0.4962452

 Al 
  0.0100960  0.7602173  0.7460980

 Al 
  0.2338325  0.5116145  0.7339760

 Al 
  0.2392493  0.7565492  0.5014145

 Al 
  0.4913507  0.4979543  0.9858064

 Al 
  0.4909782  0.7481053  0.2650686

 Al 
  0.7539751  0.4906032  0.2558784

 Al 
  0.7590874  0.7460299  0.0204210

 Al 
  0.4809552  0.9919200  0.4941315

 Al 
  0.5112247  0.2422491  0.7388310

 Al 
  0.7603386  0.9918494  0.7608386

 Al 
  0.7335417  0.2555765  0.4961301

 Al 
  0.4736003  0.4849834  0.5165846

 Al 
  0.4846146  0.7441129  0.7396490

 Al 
  0.7515123  0.5132122  0.7410537

 Al 
  0.7401960  0.7470039  0.5033600

