32 
charge = 0 
 Al 
  0.0133830  0.0194211  0.0256633

 Al 
  0.0082892  0.2584773  0.2492179

 Al 
  0.2681897  0.0174855  0.2585478

 Al 
  0.2491844  0.2510346  0.9963071

 Al 
  0.5068462  0.9877345  0.9967563

 Al 
  0.5145574  0.2477254  0.2553710

 Al 
  0.7509022  0.0051136  0.2665734

 Al 
  0.7412170  0.2545456  0.9799366

 Al 
  0.9999109  0.4996980  0.9852990

 Al 
  0.0099933  0.7341629  0.2580825

 Al 
  0.2532548  0.4970583  0.2469284

 Al 
  0.2537610  0.7533637  0.9913185

 Al 
  0.0096517  0.9990842  0.5032622

 Al 
  0.0088449  0.2476660  0.7468727

 Al 
  0.2545802  0.0137295  0.7531657

 Al 
  0.2460745  0.2439755  0.4953220

 Al 
  0.9980038  0.4894906  0.5002364

 Al 
  0.0073214  0.7592632  0.7472489

 Al 
  0.2343275  0.5114004  0.7316086

 Al 
  0.2404584  0.7539614  0.4997463

 Al 
  0.4938184  0.4986684  0.9838312

 Al 
  0.4922949  0.7474778  0.2627605

 Al 
  0.7559032  0.4930882  0.2591679

 Al 
  0.7603275  0.7503181  0.0184941

 Al 
  0.4783674  0.9881516  0.4949087

 Al 
  0.5126009  0.2408841  0.7391218

 Al 
  0.7583078  0.9907529  0.7622779

 Al 
  0.7332694  0.2592112  0.4933605

 Al 
  0.4708294  0.4817299  0.5164621

 Al 
  0.4865007  0.7437330  0.7403408

 Al 
  0.7488194  0.5152492  0.7375353

 Al 
  0.7402109  0.7463430  0.5042733

