32 
charge = 0 
 Al 
  0.0136652  0.0213207  0.0250879

 Al 
  0.0086667  0.2573115  0.2497735

 Al 
  0.2677850  0.0168482  0.2596604

 Al 
  0.2498267  0.2495136  0.9964791

 Al 
  0.5071940  0.9849203  0.9969977

 Al 
  0.5138161  0.2489815  0.2554515

 Al 
  0.7507722  0.0048995  0.2663532

 Al 
  0.7409633  0.2567992  0.9797089

 Al 
  0.0022103  0.4996634  0.9855416

 Al 
  0.0087756  0.7335367  0.2571841

 Al 
  0.2534095  0.4980867  0.2458777

 Al 
  0.2527548  0.7541446  0.9925177

 Al 
  0.0092619  0.9987278  0.5038389

 Al 
  0.0088473  0.2484258  0.7463269

 Al 
  0.2549602  0.0123385  0.7539218

 Al 
  0.2450671  0.2447639  0.4955671

 Al 
  0.9981288  0.4904064  0.5021496

 Al 
  0.0058252  0.7588090  0.7479073

 Al 
  0.2346344  0.5109809  0.7308784

 Al 
  0.2410883  0.7525976  0.4988441

 Al 
  0.4950473  0.4989703  0.9830194

 Al 
  0.4930102  0.7469952  0.2614227

 Al 
  0.7566469  0.4944594  0.2605403

 Al 
  0.7608893  0.7524071  0.0174843

 Al 
  0.4776608  0.9865279  0.4956859

 Al 
  0.5129796  0.2401911  0.7394263

 Al 
  0.7572880  0.9903185  0.7627259

 Al 
  0.7335206  0.2607433  0.4923568

 Al 
  0.4699272  0.4804589  0.5159435

 Al 
  0.4875984  0.7436959  0.7407430

 Al 
  0.7474692  0.5160066  0.7359846

 Al 
  0.7403074  0.7461450  0.5045988

