32 
charge = 0 
 Al 
  0.0138211  0.0229518  0.0242946

 Al 
  0.0089748  0.2561556  0.2504133

 Al 
  0.2671217  0.0159980  0.2605081

 Al 
  0.2506906  0.2481189  0.9966400

 Al 
  0.5074934  0.9822039  0.9973108

 Al 
  0.5128607  0.2503465  0.2553401

 Al 
  0.7507054  0.0046087  0.2660858

 Al 
  0.7408458  0.2590837  0.9796706

 Al 
  0.0045307  0.4996374  0.9858868

 Al 
  0.0074947  0.7330937  0.2562150

 Al 
  0.2536112  0.4991052  0.2448220

 Al 
  0.2516682  0.7549255  0.9938543

 Al 
  0.0087087  0.9983974  0.5043711

 Al 
  0.0086988  0.2491523  0.7457799

 Al 
  0.2552869  0.0108151  0.7546842

 Al 
  0.2440424  0.2456277  0.4958802

 Al 
  0.9982266  0.4914249  0.5040196

 Al 
  0.0042411  0.7583560  0.7486325

 Al 
  0.2349983  0.5103609  0.7304651

 Al 
  0.2417219  0.7511571  0.4978813

 Al 
  0.4962898  0.4992525  0.9823066

 Al 
  0.4937899  0.7463900  0.2599389

 Al 
  0.7572645  0.4959581  0.2617469

 Al 
  0.7614549  0.7544849  0.0164175

 Al 
  0.4773316  0.9850527  0.4967304

 Al 
  0.5131664  0.2394683  0.7398272

 Al 
  0.7562410  0.9899646  0.7630006

 Al 
  0.7340268  0.2621120  0.4915908

 Al 
  0.4693419  0.4793995  0.5151106

 Al 
  0.4888013  0.7437491  0.7411910

 Al 
  0.7460881  0.5165895  0.7345602

 Al 
  0.7404559  0.7460596  0.5048228

