32 
charge = 0 
 Al 
  0.0133471  0.0263291  0.0203220

 Al 
  0.0094339  0.2527672  0.2531013

 Al 
  0.2635278  0.0119425  0.2616752

 Al 
  0.2550146  0.2445584  0.9970695

 Al 
  0.5080664  0.9743886  0.9988119

 Al 
  0.5085590  0.2551903  0.2537795

 Al 
  0.7508217  0.0033204  0.2649597

 Al 
  0.7414064  0.2664831  0.9807510

 Al 
  0.0119375  0.4996164  0.9876083

 Al 
  0.0030828  0.7329365  0.2528130

 Al 
  0.2544317  0.5022128  0.2414113

 Al 
  0.2476969  0.7573177  0.9988503

 Al 
  0.0059960  0.9973714  0.5058809

 Al 
  0.0072360  0.2511584  0.7441080

 Al 
  0.2558648  0.0051210  0.7570306

 Al 
  0.2407257  0.2485582  0.4972996

 Al 
  0.9983169  0.4953690  0.5094315

 Al 
  0.9988206  0.7569180  0.7513390

 Al 
  0.2366715  0.5072880  0.7313574

 Al 
  0.2436105  0.7461339  0.4944916

 Al 
  0.5002129  0.5001374  0.9806717

 Al 
  0.4967588  0.7437020  0.2544342

 Al 
  0.7584290  0.5015346  0.2643904

 Al 
  0.7634560  0.7607668  0.0126330

 Al 
  0.4786211  0.9813932  0.5015593

 Al 
  0.5125489  0.2369846  0.7416229

 Al 
  0.7527697  0.9894832  0.7627345

 Al 
  0.7371789  0.2653124  0.4906527

 Al 
  0.4695894  0.4774516  0.5105614

 Al 
  0.4931117  0.7443728  0.7428803

 Al 
  0.7415450  0.5171848  0.7310084

 Al 
  0.7412096  0.7466982  0.5047609

