32 
charge = 0 
 Al 
  0.0138347  0.0243305  0.0232550

 Al 
  0.0092112  0.2550072  0.2511670

 Al 
  0.2661947  0.0149139  0.2611145

 Al 
  0.2518180  0.2468331  0.9967910

 Al 
  0.5077422  0.9795480  0.9977093

 Al 
  0.5116752  0.2518353  0.2550307

 Al 
  0.7506967  0.0042448  0.2657678

 Al 
  0.7408693  0.2614413  0.9798228

 Al 
  0.0069105  0.4996188  0.9863398

 Al 
  0.0061259  0.7328375  0.2551668

 Al 
  0.2538538  0.5001250  0.2437367

 Al 
  0.2504777  0.7557138  0.9953455

 Al 
  0.0079848  0.9980731  0.5048797

 Al 
  0.0083907  0.2498503  0.7452280

 Al 
  0.2555542  0.0091233  0.7554589

 Al 
  0.2429830  0.2465571  0.4962675

 Al 
  0.9982946  0.4925746  0.5058574

 Al 
  0.0025506  0.7578969  0.7494394

 Al 
  0.2354413  0.5095391  0.7303883

 Al 
  0.2423568  0.7496114  0.4968405

 Al 
  0.4975595  0.4995297  0.9816779

 Al 
  0.4946612  0.7456475  0.2582880

 Al 
  0.7577669  0.4976202  0.2627952

 Al 
  0.7620526  0.7565702  0.0152690

 Al 
  0.4773798  0.9837075  0.4980558

 Al 
  0.5131615  0.2386986  0.7403260

 Al 
  0.7551483  0.9896985  0.7630996

 Al 
  0.7347965  0.2633298  0.4910524

 Al 
  0.4690783  0.4785407  0.5139473

 Al 
  0.4901205  0.7438864  0.7416922

 Al 
  0.7446513  0.5169893  0.7332533

 Al 
  0.7406552  0.7461066  0.5049342

