32 
charge = 0 
 Al 
  0.0131899  0.0265581  0.0197168

 Al 
  0.0094339  0.2524095  0.2534800

 Al 
  0.2629820  0.0113373  0.2616900

 Al 
  0.2556779  0.2442193  0.9971128

 Al 
  0.5080937  0.9735607  0.9990384

 Al 
  0.5079476  0.2557906  0.2534862

 Al 
  0.7508576  0.0031446  0.2648012

 Al 
  0.7415672  0.2673642  0.9809898

 Al 
  0.0128075  0.4996201  0.9878706

 Al 
  0.0025395  0.7330404  0.2523922

 Al 
  0.2545344  0.5025655  0.2410017

 Al 
  0.2471784  0.7575850  0.9995000

 Al 
  0.0055963  0.9972402  0.5060492

 Al 
  0.0069700  0.2513613  0.7439236

 Al 
  0.2558797  0.0043686  0.7572880

 Al 
  0.2403346  0.2488986  0.4975051

 Al 
  0.9983021  0.4959061  0.5100045

 Al 
  0.9981597  0.7567435  0.7516917

 Al 
  0.2369326  0.5068400  0.7316754

 Al 
  0.2438147  0.7455052  0.4940684

 Al 
  0.5006646  0.5002549  0.9805406

 Al 
  0.4971573  0.7433172  0.2537238

 Al 
  0.7584934  0.5022623  0.2645822

 Al 
  0.7637233  0.7614574  0.0121467

 Al 
  0.4789738  0.9810603  0.5022449

 Al 
  0.5123657  0.2366776  0.7418766

 Al 
  0.7523477  0.9894968  0.7625959

 Al 
  0.7376863  0.2655760  0.4906737

 Al 
  0.4698171  0.4773588  0.5098621

 Al 
  0.4936488  0.7444743  0.7431018

 Al 
  0.7409992  0.5171316  0.7306891

 Al 
  0.7413222  0.7468702  0.5046755

