32 
charge = 0 
 Al 
  0.0108435  0.0272276  0.0132097

 Al 
  0.0088981  0.2497426  0.2572744

 Al 
  0.2573214  0.0048463  0.2610836

 Al 
  0.2628249  0.2418507  0.9974605

 Al 
  0.5078833  0.9673024  0.0014962

 Al 
  0.5018304  0.2611009  0.2500050

 Al 
  0.7512660  0.0015333  0.2631194

 Al 
  0.7439421  0.2751361  0.9841245

 Al 
  0.0203220  0.4996609  0.9907245

 Al 
  0.9977390  0.7351406  0.2486511

 Al 
  0.2553178  0.5055381  0.2372717

 Al 
  0.2421650  0.7597495  0.0057114

 Al 
  0.0015074  0.9958505  0.5075553

 Al 
  0.0037610  0.2528315  0.7424843

 Al 
  0.2554106  0.9969927  0.7592322

 Al 
  0.2369808  0.2516076  0.4996782

 Al 
  0.9979320  0.5013799  0.5143495

 Al 
  0.9923506  0.7550938  0.7550097

 Al 
  0.2400488  0.5023501  0.7362692

 Al 
  0.2454210  0.7397678  0.4902530

 Al 
  0.5044367  0.5016187  0.9799787

 Al 
  0.5010928  0.7393966  0.2471016

 Al 
  0.7584377  0.5091642  0.2651354

 Al 
  0.7664571  0.7668234  0.0074613

 Al 
  0.4835565  0.9790035  0.5088869

 Al 
  0.5097941  0.2339414  0.7443815

 Al 
  0.7485335  0.9904052  0.7603869

 Al 
  0.7432516  0.2668259  0.4918667

 Al 
  0.4735335  0.4778117  0.5025432

 Al 
  0.4984308  0.7454223  0.7452230

 Al 
  0.7361888  0.5155648  0.7288006

 Al 
  0.7425202  0.7493169  0.5032684

