32 
charge = 0 
 Al 
  0.0128088  0.0269232  0.0184137

 Al 
  0.0093993  0.2517202  0.2542820

 Al 
  0.2618187  0.0100391  0.2616628

 Al 
  0.2571098  0.2435808  0.9971982

 Al 
  0.5081184  0.9719581  0.9995260

 Al 
  0.5066568  0.2570083  0.2528328

 Al 
  0.7509405  0.0027833  0.2644634

 Al 
  0.7419521  0.2691426  0.9815430

 Al 
  0.0145562  0.4996300  0.9884337

 Al 
  0.0014393  0.7333263  0.2515371

 Al 
  0.2547349  0.5032672  0.2401663

 Al 
  0.2461017  0.7581110  0.0008477

 Al 
  0.0047473  0.9969643  0.5063871

 Al 
  0.0063722  0.2517499  0.7435610

 Al 
  0.2558722  0.0028018  0.7577892

 Al 
  0.2395475  0.2495706  0.4979456

 Al 
  0.9982575  0.4970360  0.5111121

 Al 
  0.9968232  0.7563883  0.7524219

 Al 
  0.2375080  0.5058945  0.7324427

 Al 
  0.2442107  0.7442218  0.4932058

 Al 
  0.5015630  0.5005074  0.9803141

 Al 
  0.4979914  0.7425016  0.2522623

 Al 
  0.7585813  0.5037709  0.2648953

 Al 
  0.7642889  0.7628075  0.0111405

 Al 
  0.4797956  0.9804515  0.5036793

 Al 
  0.5119301  0.2360539  0.7424088

 Al 
  0.7514900  0.9895748  0.7622482

 Al 
  0.7387877  0.2660363  0.4907901

 Al 
  0.4703975  0.4772586  0.5083659

 Al 
  0.4947428  0.7446884  0.7435597

 Al 
  0.7398953  0.5169484  0.7301074

 Al 
  0.7415623  0.7472798  0.5044577

