32 
charge = 0 
 Al 
  0.0125848  0.0270581  0.0177207

 Al 
  0.0093634  0.2513923  0.2547003

 Al 
  0.2612061  0.0093498  0.2616207

 Al 
  0.2578721  0.2432837  0.9972402

 Al 
  0.5081172  0.9711895  0.9997859

 Al 
  0.5059836  0.2576209  0.2524739

 Al 
  0.7509851  0.0025989  0.2642839

 Al 
  0.7421774  0.2700349  0.9818549

 Al 
  0.0154275  0.4996362  0.9887357

 Al 
  0.0008861  0.7335107  0.2511064

 Al 
  0.2548314  0.5036149  0.2397443

 Al 
  0.2455473  0.7583684  0.0015383

 Al 
  0.0043030  0.9968182  0.5065566

 Al 
  0.0060443  0.2519331  0.7433852

 Al 
  0.2558487  0.0019912  0.7580305

 Al 
  0.2391565  0.2498985  0.4981771

 Al 
  0.9982253  0.4976264  0.5116430

 Al 
  0.9961537  0.7562064  0.7527944

 Al 
  0.2378236  0.5054020  0.7328895

 Al 
  0.2444025  0.7435721  0.4927702

 Al 
  0.5020061  0.5006435  0.9802213

 Al 
  0.4984233  0.7420759  0.2515173

 Al 
  0.7586035  0.5045443  0.2650129

 Al 
  0.7645847  0.7634610  0.0106220

 Al 
  0.4802584  0.9801755  0.5044206

 Al 
  0.5116789  0.2357396  0.7426848

 Al 
  0.7510569  0.9896404  0.7620402

 Al 
  0.7393780  0.2662294  0.4908854

 Al 
  0.4707465  0.4772511  0.5075739

 Al 
  0.4952923  0.7447973  0.7437949

 Al 
  0.7393421  0.5168197  0.7298488

 Al 
  0.7416898  0.7475174  0.5043253

