32 
charge = 0 
 Al 
  0.0071779  0.0257834  0.0059081

 Al 
  0.0073524  0.2484803  0.2606715

 Al 
  0.2514170  0.9973887  0.2598052

 Al 
  0.2704854  0.2407356  0.9976189

 Al 
  0.5067224  0.9644832  0.0043030

 Al 
  0.4960757  0.2650191  0.2457118

 Al 
  0.7515767  0.0003787  0.2610663

 Al 
  0.7479692  0.2813549  0.9886318

 Al 
  0.0256967  0.4994456  0.9940473

 Al 
  0.9941921  0.7393879  0.2459160

 Al 
  0.2555864  0.5076259  0.2341592

 Al 
  0.2374189  0.7611814  0.0113707

 Al 
  0.9973925  0.9940399  0.5089810

 Al 
  0.9995978  0.2534825  0.7419657

 Al 
  0.2536421  0.9895067  0.7600156

 Al 
  0.2347322  0.2530568  0.5021509

 Al 
  0.9972848  0.5073499  0.5165400

 Al 
  0.9881281  0.7534045  0.7578461

 Al 
  0.2445461  0.4979989  0.7428853

 Al 
  0.2465571  0.7349649  0.4872618

 Al 
  0.5069898  0.5037275  0.9807200

 Al 
  0.5049651  0.7354252  0.2413928

 Al 
  0.7572150  0.5150896  0.2633335

 Al 
  0.7692280  0.7693765  0.0028848

 Al 
  0.4893879  0.9788958  0.5145166

 Al 
  0.5060195  0.2319947  0.7467910

 Al 
  0.7453393  0.9929063  0.7568561

 Al 
  0.7494604  0.2658198  0.4942577

 Al 
  0.4794552  0.4805331  0.4950510

 Al 
  0.5019591  0.7458987  0.7473120

 Al 
  0.7325046  0.5122964  0.7289590

 Al 
  0.7439248  0.7529689  0.5010680

