32 
charge = 0 
 Al 
  0.0105032  0.0271620  0.0124375

 Al 
  0.0087817  0.2495322  0.2576853

 Al 
  0.2566754  0.0040691  0.2609623

 Al 
  0.2636639  0.2416724  0.9974902

 Al 
  0.5078078  0.9668049  0.0017908

 Al 
  0.5011584  0.2616158  0.2495656

 Al 
  0.7513106  0.0013762  0.2629164

 Al 
  0.7442948  0.2759071  0.9845515

 Al 
  0.0210398  0.4996584  0.9910710

 Al 
  0.9972724  0.7354921  0.2482860

 Al 
  0.2553772  0.5058178  0.2368893

 Al 
  0.2416205  0.7599438  0.0063772

 Al 
  0.0010457  0.9956772  0.5077137

 Al 
  0.0033464  0.2529429  0.7423717

 Al 
  0.2552893  0.9961735  0.7593820

 Al 
  0.2366665  0.2518341  0.4999356

 Al 
  0.9978702  0.5020135  0.5147022

 Al 
  0.9917888  0.7549119  0.7553537

 Al 
  0.2404658  0.5018551  0.7369115

 Al 
  0.2455646  0.7391825  0.4898730

 Al 
  0.5047844  0.5018056  0.9799936

 Al 
  0.5015284  0.7389548  0.2464148

 Al 
  0.7583622  0.5098881  0.2650587

 Al 
  0.7667690  0.7672603  0.0069489

 Al 
  0.4841542  0.9788934  0.5095849

 Al 
  0.5094352  0.2336753  0.7446550

 Al 
  0.7481461  0.9905920  0.7600601

 Al 
  0.7439161  0.2668296  0.4920821

 Al 
  0.4740842  0.4779986  0.5017066

 Al 
  0.4988961  0.7455089  0.7454532

 Al 
  0.7357173  0.5152888  0.7287139

 Al 
  0.7426650  0.7496621  0.5030605

