32 
charge = 0 
 Al 
  0.0060133  0.0251200  0.0039255

 Al 
  0.0067422  0.2484196  0.2613398

 Al 
  0.2499010  0.9953294  0.2594550

 Al 
  0.2723739  0.2406081  0.9975942

 Al 
  0.5062138  0.9644956  0.0050629

 Al 
  0.4948060  0.2656589  0.2445213

 Al 
  0.7515965  0.0002289  0.2604215

 Al 
  0.7493763  0.2826184  0.9900686

 Al 
  0.0265395  0.4992661  0.9949594

 Al 
  0.9935919  0.7409547  0.2455002

 Al 
  0.2555381  0.5079464  0.2335516

 Al 
  0.2363187  0.7614227  0.0125971

 Al 
  0.9963987  0.9934595  0.5093461

 Al 
  0.9983776  0.2535271  0.7420870

 Al 
  0.2528897  0.9875439  0.7599710

 Al 
  0.2344463  0.2531793  0.5028476

 Al 
  0.9971016  0.5089711  0.5166848

 Al 
  0.9874709  0.7529442  0.7584278

 Al 
  0.2460287  0.4969593  0.7448542

 Al 
  0.2468133  0.7339699  0.4867247

 Al 
  0.5073882  0.5044602  0.9811668

 Al 
  0.5059044  0.7344661  0.2401898

 Al 
  0.7566952  0.5162640  0.2624103

 Al 
  0.7698555  0.7694161  0.0017388

 Al 
  0.4909844  0.9792436  0.5155735

 Al 
  0.5048438  0.2317410  0.7473677

 Al 
  0.7446711  0.9939038  0.7557510

 Al 
  0.7510779  0.2651403  0.4949953

 Al 
  0.4813376  0.4816531  0.4932256

 Al 
  0.5025420  0.7458579  0.7478627

 Al 
  0.7318313  0.5111480  0.7293760

 Al 
  0.7443258  0.7540827  0.5003985

