32 
charge = 0 
 Al 
  0.0039812  0.0238565  0.0007178

 Al 
  0.0055554  0.2485793  0.2621108

 Al 
  0.2475323  0.9920029  0.2589439

 Al 
  0.2751324  0.2404918  0.9974717

 Al 
  0.5051916  0.9652913  0.0062819

 Al 
  0.4931055  0.2662244  0.2426217

 Al 
  0.7515309  0.0001844  0.2592384

 Al 
  0.7519925  0.2842656  0.9926402

 Al 
  0.0272412  0.4988070  0.9964234

 Al 
  0.9929595  0.7439322  0.2451921

 Al 
  0.2553401  0.5081865  0.2328560

 Al 
  0.2347656  0.7616838  0.0141973

 Al 
  0.9949396  0.9924236  0.5099240

 Al 
  0.9963368  0.2535283  0.7425783

 Al 
  0.2513910  0.9843869  0.7596431

 Al 
  0.2343461  0.2531385  0.5040159

 Al 
  0.9968108  0.5115910  0.5165004

 Al 
  0.9869313  0.7521682  0.7591580

 Al 
  0.2487166  0.4954062  0.7481523

 Al 
  0.2472439  0.7326754  0.4861740

 Al 
  0.5077608  0.5058178  0.9821308

 Al 
  0.5072892  0.7331023  0.2386045

 Al 
  0.7557349  0.5176501  0.2605020

 Al 
  0.7706512  0.7688419  0.9999567

 Al 
  0.4935040  0.9801792  0.5167318

 Al 
  0.5027944  0.2316519  0.7482216

 Al 
  0.7437924  0.9958467  0.7538699

 Al 
  0.7535865  0.2636726  0.4962056

 Al 
  0.4846480  0.4838226  0.4905153

 Al 
  0.5031100  0.7456079  0.7487525

 Al 
  0.7310900  0.5090429  0.7303846

 Al 
  0.7449928  0.7559403  0.4992847

