32 
charge = 0 
 Al 
  0.0056185  0.0248837  0.0032795

 Al 
  0.0065232  0.2484258  0.2615279

 Al 
  0.2494146  0.9946562  0.2593461

 Al 
  0.2729617  0.2405772  0.9975781

 Al 
  0.5060282  0.9645785  0.0053104

 Al 
  0.4944260  0.2658210  0.2441352

 Al 
  0.7515940  0.0001992  0.2601975

 Al 
  0.7498701  0.2829897  0.9905611

 Al 
  0.0267487  0.4991919  0.9952564

 Al 
  0.9934323  0.7415103  0.2454012

 Al 
  0.2555109  0.5080231  0.2333820

 Al 
  0.2359821  0.7614883  0.0129610

 Al 
  0.9960893  0.9932615  0.5094636

 Al 
  0.9979729  0.2535320  0.7421551

 Al 
  0.2526162  0.9869066  0.7599314

 Al 
  0.2343894  0.2531954  0.5030791

 Al 
  0.9970422  0.5094995  0.5166885

 Al 
  0.9873088  0.7527919  0.7585973

 Al 
  0.2465410  0.4966326  0.7455089

 Al 
  0.2468962  0.7336766  0.4865811

 Al 
  0.5074910  0.5047176  0.9813363

 Al 
  0.5061990  0.7341691  0.2398334

 Al 
  0.7565108  0.5165970  0.2620675

 Al 
  0.7700398  0.7693641  0.0013725

 Al 
  0.4915004  0.9793946  0.5158643

 Al 
  0.5044453  0.2316890  0.7475484

 Al 
  0.7444743  0.9942627  0.7553797

 Al 
  0.7515952  0.2648817  0.4952391

 Al 
  0.4819786  0.4820553  0.4926538

 Al 
  0.5026942  0.7458257  0.7480422

 Al 
  0.7316457  0.5107470  0.7295468

 Al 
  0.7444582  0.7544527  0.5001757

