32 
charge = 0 
 Al 
  0.0002166  0.0213616  0.9954074

 Al 
  0.0030840  0.2495000  0.2624821

 Al 
  0.2438431  0.9866653  0.2583288

 Al 
  0.2786273  0.2403606  0.9970323

 Al 
  0.5029924  0.9686711  0.0082409

 Al 
  0.4913668  0.2657901  0.2397010

 Al 
  0.7510495  0.0007141  0.2567583

 Al 
  0.7571964  0.2859722  0.9976697

 Al 
  0.0265346  0.4975348  0.9987860

 Al 
  0.9926415  0.7500545  0.2456920

 Al 
  0.2546904  0.5077471  0.2325999

 Al 
  0.2328944  0.7617420  0.0156440

 Al 
  0.9929756  0.9904658  0.5108460

 Al 
  0.9928432  0.2535221  0.7442193

 Al 
  0.2481956  0.9791198  0.7583696

 Al 
  0.2351938  0.2525011  0.5060517

 Al 
  0.9963257  0.5158482  0.5151354

 Al 
  0.9874375  0.7506893  0.7597409

 Al 
  0.2539231  0.4931365  0.7537968

 Al 
  0.2481857  0.7313932  0.4862284

 Al 
  0.5077583  0.5084724  0.9844141

 Al 
  0.5091295  0.7316061  0.2369363

 Al 
  0.7540914  0.5184471  0.2562534

 Al 
  0.7711376  0.7662343  0.9971561

 Al 
  0.4973665  0.9827546  0.5170375

 Al 
  0.4990557  0.2324427  0.7494084

 Al 
  0.7428494  0.9999109  0.7506299

 Al 
  0.7573734  0.2603176  0.4981486

 Al 
  0.4908755  0.4883075  0.4867222

 Al 
  0.5031286  0.7447923  0.7502240

 Al 
  0.7308735  0.5049304  0.7328684

 Al 
  0.7461425  0.7589946  0.4974679

