32 
charge = 0 
 Al 
  0.9996832  0.0210002  0.9947069

 Al 
  0.0027189  0.2496770  0.2624499

 Al 
  0.2433766  0.9859883  0.2582731

 Al 
  0.2789738  0.2403371  0.9969556

 Al 
  0.5026632  0.9692948  0.0084922

 Al 
  0.4912405  0.2656069  0.2393495

 Al 
  0.7509443  0.0008403  0.2563722

 Al 
  0.7579513  0.2861108  0.9984085

 Al 
  0.0262722  0.4973219  0.9990916

 Al 
  0.9926439  0.7509641  0.2458418

 Al 
  0.2545753  0.5076098  0.2326518

 Al 
  0.2327137  0.7617111  0.0157208

 Al 
  0.9927603  0.9901898  0.5109648

 Al 
  0.9923766  0.2535357  0.7445089

 Al 
  0.2477192  0.9784157  0.7581333

 Al 
  0.2353955  0.2523736  0.5063289

 Al 
  0.9962588  0.5163977  0.5148656

 Al 
  0.9876207  0.7504666  0.7597594

 Al 
  0.2546706  0.4928580  0.7545518

 Al 
  0.2483441  0.7312992  0.4863274

 Al 
  0.5077162  0.5088510  0.9847817

 Al 
  0.5093263  0.7314972  0.2367952

 Al 
  0.7538934  0.5184174  0.2555975

 Al 
  0.7711116  0.7657505  0.9967972

 Al 
  0.4978417  0.9831890  0.5169311

 Al 
  0.4985384  0.2326308  0.7495433

 Al 
  0.7427664  0.0005161  0.7502017

 Al 
  0.7578375  0.2597990  0.4983961

 Al 
  0.4917690  0.4889721  0.4862841

 Al 
  0.5030593  0.7446624  0.7504158

 Al 
  0.7309403  0.5043339  0.7332644

 Al 
  0.7462972  0.7593832  0.4972378

