32 
charge = 0 
 Al 
  0.9985669  0.0202428  0.9932850

 Al 
  0.0019529  0.2500730  0.2623286

 Al 
  0.2424447  0.9846394  0.2581791

 Al 
  0.2795864  0.2402814  0.9967898

 Al 
  0.5019714  0.9706809  0.0089971

 Al 
  0.4910598  0.2651478  0.2386627

 Al 
  0.7506992  0.0011361  0.2555418

 Al 
  0.7595255  0.2863324  0.9999653

 Al 
  0.0256262  0.4968615  0.9997079

 Al 
  0.9926650  0.7528761  0.2462019

 Al 
  0.2543240  0.5072744  0.2328202

 Al 
  0.2323944  0.7616182  0.0157950

 Al 
  0.9923506  0.9896193  0.5112049

 Al 
  0.9914299  0.2535803  0.7451463

 Al 
  0.2467155  0.9769739  0.7576036

 Al 
  0.2358633  0.2520865  0.5068957

 Al 
  0.9961153  0.5174991  0.5142555

 Al 
  0.9880674  0.7499901  0.7597557

 Al 
  0.2562287  0.4923061  0.7560913

 Al 
  0.2486968  0.7311569  0.4865972

 Al 
  0.5076098  0.5096344  0.9855774

 Al 
  0.5096938  0.7313512  0.2365564

 Al 
  0.7535159  0.5182689  0.2541966

 Al 
  0.7709903  0.7646725  0.9960732

 Al 
  0.4987822  0.9841382  0.5166106

 Al 
  0.4974766  0.2330726  0.7498008

 Al 
  0.7426217  0.0017895  0.7493367

 Al 
  0.7587508  0.2586951  0.4988899

 Al 
  0.4936402  0.4903668  0.4854327

 Al 
  0.5028761  0.7443926  0.7508032

 Al 
  0.7311433  0.5030852  0.7341146

 Al 
  0.7466140  0.7601592  0.4967811

