32 
charge = 0 
 Al 
  0.9949285  0.0177392  0.9890055

 Al 
  0.9995025  0.2515531  0.2615217

 Al 
  0.2397703  0.9808413  0.2580615

 Al 
  0.2806111  0.2400327  0.9962341

 Al 
  0.4997277  0.9758118  0.0104611

 Al 
  0.4911452  0.2630340  0.2368806

 Al 
  0.7496696  0.0023514  0.2525989

 Al 
  0.7645290  0.2864895  0.0051062

 Al 
  0.0227551  0.4952824  0.0015358

 Al 
  0.9927763  0.7591344  0.2476808

 Al 
  0.2534008  0.5057844  0.2338510

 Al 
  0.2318301  0.7610353  0.0153445

 Al 
  0.9913890  0.9878422  0.5119115

 Al 
  0.9885971  0.2539095  0.7474766

 Al 
  0.2434595  0.9725459  0.7555715

 Al 
  0.2377543  0.2510148  0.5086308

 Al 
  0.9956190  0.5206896  0.5119066

 Al 
  0.9899708  0.7483008  0.7594129

 Al 
  0.2611938  0.4907443  0.7607717

 Al 
  0.2500606  0.7311259  0.4879857

 Al 
  0.5071655  0.5120687  0.9884152

 Al 
  0.5105032  0.7316111  0.2362210

 Al 
  0.7526694  0.5171291  0.2494406

 Al 
  0.7700411  0.7606876  0.9939260

 Al 
  0.5013885  0.9875736  0.5147827

 Al 
  0.4942206  0.2348696  0.7504344

 Al 
  0.7423717  0.0059564  0.7468207

 Al 
  0.7612631  0.2549762  0.5003057

 Al 
  0.4997587  0.4949285  0.4831951

 Al 
  0.5020011  0.7435931  0.7519355

 Al 
  0.7323412  0.4990087  0.7370724

 Al 
  0.7475806  0.7623323  0.4954990

