32 
charge = 0 
 Al 
  0.9967885  0.0190263  0.9911230

 Al 
  0.0007388  0.2507661  0.2620031

 Al 
  0.2410673  0.9826655  0.2580875

 Al 
  0.2802708  0.2401713  0.9965175

 Al 
  0.5008675  0.9730867  0.0097483

 Al 
  0.4909806  0.2642233  0.2377036

 Al 
  0.7502388  0.0016856  0.2541471

 Al 
  0.7620068  0.2865155  0.0024726

 Al 
  0.0243540  0.4960967  0.0006373

 Al 
  0.9927219  0.7559415  0.2468776

 Al 
  0.2538897  0.5066172  0.2332385

 Al 
  0.2320331  0.7613868  0.0156985

 Al 
  0.9918123  0.9887320  0.5115650

 Al 
  0.9899931  0.2537040  0.7462428

 Al 
  0.2451129  0.9747574  0.7566655

 Al 
  0.2367271  0.2515853  0.5077669

 Al 
  0.9958802  0.5191352  0.5131714

 Al 
  0.9889251  0.7491919  0.7596456

 Al 
  0.2586865  0.4914979  0.7584451

 Al 
  0.2493231  0.7310665  0.4871838

 Al 
  0.5074043  0.5108534  0.9869214

 Al 
  0.5101616  0.7313376  0.2363163

 Al 
  0.7530258  0.5178209  0.2518984

 Al 
  0.7706265  0.7628026  0.9949842

 Al 
  0.5001411  0.9857569  0.5158569

 Al 
  0.4958406  0.2338919  0.7501485

 Al 
  0.7424620  0.0038315  0.7480447

 Al 
  0.7600663  0.2568920  0.4996201

 Al 
  0.4966289  0.4926006  0.4842409

 Al 
  0.5024937  0.7439793  0.7513836

 Al 
  0.7316321  0.5010903  0.7355292

 Al 
  0.7471004  0.7612903  0.4961153

