32 
charge = 0 
 Al 
  0.9918531  0.0155611  0.9858497

 Al 
  0.9976152  0.2529503  0.2604747

 Al 
  0.2379895  0.9784280  0.2581679

 Al 
  0.2802968  0.2397542  0.9958146

 Al 
  0.4979246  0.9806854  0.0114598

 Al 
  0.4919422  0.2606294  0.2359475

 Al 
  0.7485360  0.0036310  0.2498379

 Al 
  0.7684001  0.2859227  0.0094067

 Al 
  0.0196315  0.4939904  0.0028526

 Al 
  0.9927714  0.7642654  0.2491374

 Al 
  0.2525259  0.5041050  0.2352334

 Al 
  0.2318709  0.7601851  0.0142394

 Al 
  0.9910190  0.9865106  0.5124016

 Al 
  0.9865811  0.2544342  0.7496720

 Al 
  0.2408470  0.9691773  0.7535295

 Al 
  0.2396688  0.2499889  0.5099327

 Al 
  0.9951488  0.5228788  0.5095379

 Al 
  0.9919497  0.7466635  0.7587966

 Al 
  0.2651069  0.4897307  0.7642901

 Al 
  0.2514801  0.7315269  0.4897146

 Al 
  0.5067559  0.5138780  0.9910796

 Al 
  0.5107371  0.7327484  0.2363868

 Al 
  0.7524801  0.5155970  0.2453468

 Al 
  0.7686476  0.7569155  0.9923482

 Al 
  0.5030555  0.9908235  0.5123991

 Al 
  0.4918073  0.2366974  0.7507302

 Al 
  0.7423593  0.0093745  0.7451376

 Al 
  0.7628335  0.2518007  0.5012450

 Al 
  0.5049230  0.4987092  0.4818969

 Al 
  0.5010334  0.7431105  0.7527090

 Al 
  0.7339290  0.4956252  0.7397517

 Al 
  0.7482798  0.7637011  0.4946698

