32 
charge = 0 
 Al 
  0.9943023  0.0173024  0.9883261

 Al 
  0.9991003  0.2518291  0.2613311

 Al 
  0.2393693  0.9802869  0.2580689

 Al 
  0.2806396  0.2399807  0.9961413

 Al 
  0.4993515  0.9767685  0.0106839

 Al 
  0.4912541  0.2625885  0.2366467

 Al 
  0.7494579  0.0025939  0.2520581

 Al 
  0.7653520  0.2864314  0.0059898

 Al 
  0.0221647  0.4950101  0.0018217

 Al 
  0.9927887  0.7601975  0.2479667

 Al 
  0.2532300  0.5054725  0.2340948

 Al 
  0.2318004  0.7608918  0.0151713

 Al 
  0.9912801  0.9875551  0.5120204

 Al 
  0.9881553  0.2539973  0.7479085

 Al 
  0.2429137  0.9718281  0.7551792

 Al 
  0.2381244  0.2508143  0.5089092

 Al 
  0.9955274  0.5211759  0.5114536

 Al 
  0.9903507  0.7479852  0.7593102

 Al 
  0.2620180  0.4905128  0.7615229

 Al 
  0.2503292  0.7311791  0.4882964

 Al 
  0.5070826  0.5124598  0.9889374

 Al 
  0.5105849  0.7317707  0.2362235

 Al 
  0.7525890  0.5168531  0.2486077

 Al 
  0.7697998  0.7599451  0.9935882

 Al 
  0.5017685  0.9882097  0.5143582

 Al 
  0.4936996  0.2352223  0.7505124

 Al 
  0.7423568  0.0066643  0.7464408

 Al 
  0.7616257  0.2543290  0.5005173

 Al 
  0.5008094  0.4957057  0.4828870

 Al 
  0.5018180  0.7434780  0.7521076

 Al 
  0.7326234  0.4983132  0.7376046

 Al 
  0.7477328  0.7626479  0.4953109

