32 
charge = 0 
 Al 
  0.9930622  0.0164262  0.9870341

 Al 
  0.9983268  0.2523897  0.2609178

 Al 
  0.2386305  0.9792795  0.2581048

 Al 
  0.2805591  0.2398706  0.9959680

 Al 
  0.4986176  0.9787201  0.0110972

 Al 
  0.4915512  0.2616380  0.2362470

 Al 
  0.7490100  0.0031026  0.2509542

 Al 
  0.7669360  0.2862321  0.0077323

 Al 
  0.0209222  0.4944817  0.0023613

 Al 
  0.9927949  0.7622803  0.2485521

 Al 
  0.2528798  0.5048092  0.2346344

 Al 
  0.2317992  0.7605626  0.0147493

 Al 
  0.9911131  0.9870081  0.5122222

 Al 
  0.9873236  0.2541990  0.7487884

 Al 
  0.2418494  0.9704520  0.7543674

 Al 
  0.2388892  0.2504047  0.5094426

 Al 
  0.9953406  0.5220794  0.5105119

 Al 
  0.9911403  0.7473355  0.7590713

 Al 
  0.2636132  0.4900908  0.7629598

 Al 
  0.2508910  0.7313277  0.4889746

 Al 
  0.5069155  0.5132023  0.9900030

 Al 
  0.5106963  0.7321927  0.2362742

 Al 
  0.7524912  0.5162492  0.2469531

 Al 
  0.7692577  0.7584340  0.9929434

 Al 
  0.5024603  0.9895104  0.5134263

 Al 
  0.4927095  0.2359524  0.7506411

 Al 
  0.7423469  0.0080516  0.7457415

 Al 
  0.7622791  0.2530456  0.5009084

 Al 
  0.5028947  0.4972365  0.4823425

 Al 
  0.5014319  0.7432726  0.7524281

 Al 
  0.7332446  0.4969432  0.7386800

 Al 
  0.7480224  0.7632196  0.4949668

