32 
charge = 0 
 Al 
  0.9955522  0.0181736  0.9896998

 Al 
  0.9999121  0.2512821  0.2616974

 Al 
  0.2401886  0.9814254  0.2580627

 Al 
  0.2805393  0.2400822  0.9963282

 Al 
  0.5001077  0.9748750  0.0102309

 Al 
  0.4910623  0.2634573  0.2371368

 Al 
  0.7498701  0.0021187  0.2531286

 Al 
  0.7636936  0.2865229  0.0042226

 Al 
  0.0233194  0.4955559  0.0012425

 Al 
  0.9927603  0.7580664  0.2474024

 Al 
  0.2535691  0.5060801  0.2336258

 Al 
  0.2318784  0.7611665  0.0154906

 Al 
  0.9915153  0.9881355  0.5117989

 Al 
  0.9890538  0.2538315  0.7470534

 Al 
  0.2440102  0.9732748  0.7559514

 Al 
  0.2373967  0.2512116  0.5083461

 Al 
  0.9957081  0.5201859  0.5123459

 Al 
  0.9896057  0.7486065  0.7595032

 Al 
  0.2603609  0.4909868  0.7600069

 Al 
  0.2498032  0.7310900  0.4876962

 Al 
  0.5072472  0.5116690  0.9879041

 Al 
  0.5104042  0.7314861  0.2362358

 Al 
  0.7527709  0.5173840  0.2502710

 Al 
  0.7702601  0.7614140  0.9942738

 Al 
  0.5009888  0.9869499  0.5151750

 Al 
  0.4947540  0.2345292  0.7503478

 Al 
  0.7423939  0.0052460  0.7472155

 Al 
  0.7608819  0.2556222  0.5000842

 Al 
  0.4987080  0.4941488  0.4835243

 Al 
  0.5021756  0.7437169  0.7517561

 Al 
  0.7320813  0.4997067  0.7365477

 Al 
  0.7474234  0.7619994  0.4956970

