32 
charge = 0 
 Al 
  0.9885711  0.0130897  0.9830838

 Al 
  0.9960039  0.2545109  0.2591221

 Al 
  0.2367457  0.9769281  0.2584798

 Al 
  0.2784714  0.2394028  0.9955398

 Al 
  0.4961908  0.9863299  0.0121739

 Al 
  0.4935622  0.2574637  0.2356678

 Al 
  0.7470398  0.0052398  0.2465546

 Al 
  0.7717922  0.2843089  0.0137468

 Al 
  0.0157703  0.4928964  0.0039862

 Al 
  0.9924694  0.7693109  0.2507289

 Al 
  0.2514851  0.5018638  0.2372741

 Al 
  0.2324736  0.7587954  0.0123348

 Al 
  0.9911688  0.9854228  0.5127729

 Al 
  0.9850131  0.2552918  0.7521868

 Al 
  0.2383620  0.9661551  0.7510099

 Al 
  0.2419348  0.2487748  0.5110799

 Al 
  0.9945820  0.5245520  0.5065418

 Al 
  0.9943085  0.7445622  0.7578325

 Al 
  0.2687454  0.4890810  0.7674769

 Al 
  0.2533315  0.7323288  0.4921811

 Al 
  0.5063598  0.5153879  0.9942466

 Al 
  0.5104698  0.7351245  0.2370452

 Al 
  0.7529404  0.5135686  0.2411094

 Al 
  0.7665413  0.7525754  0.9908977

 Al 
  0.5042176  0.9946513  0.5089414

 Al 
  0.4897728  0.2388570  0.7507797

 Al 
  0.7424645  0.0127531  0.7439743

 Al 
  0.7638681  0.2485038  0.5018860

 Al 
  0.5104426  0.5026026  0.4811779

 Al 
  0.4998701  0.7429236  0.7532721

 Al 
  0.7362235  0.4921798  0.7427949

 Al 
  0.7488095  0.7645636  0.4940981

