32 
charge = 0 
 Al 
  0.9867012  0.0115304  0.9818969

 Al 
  0.9954198  0.2553970  0.2583078

 Al 
  0.2364846  0.9767932  0.2587446

 Al 
  0.2764554  0.2391763  0.9955497

 Al 
  0.4953468  0.9897579  0.0123051

 Al 
  0.4949173  0.2553537  0.2359698

 Al 
  0.7460274  0.0062831  0.2444644

 Al 
  0.7731115  0.2826271  0.0159683

 Al 
  0.0133805  0.4925734  0.0044775

 Al 
  0.9920499  0.7718331  0.2515593

 Al 
  0.2508267  0.5003205  0.2387827

 Al 
  0.2331370  0.7576840  0.0108745

 Al 
  0.9915920  0.9850762  0.5128818

 Al 
  0.9845540  0.2559626  0.7536780

 Al 
  0.2371875  0.9648631  0.7493874

 Al 
  0.2433048  0.2480137  0.5115625

 Al 
  0.9942206  0.5250594  0.5045183

 Al 
  0.9957255  0.7430808  0.7571197

 Al 
  0.2704025  0.4890142  0.7689236

 Al 
  0.2546074  0.7329452  0.4939508

 Al 
  0.5061767  0.5159336  0.9962786

 Al 
  0.5100119  0.7372259  0.2377073

 Al 
  0.7535964  0.5122977  0.2388830

 Al 
  0.7649869  0.7499715  0.9901812

 Al 
  0.5045270  0.9970472  0.5064279

 Al 
  0.4890067  0.2401478  0.7506621

 Al 
  0.7425239  0.0144485  0.7437379

 Al 
  0.7640835  0.2467353  0.5019974

 Al 
  0.5136330  0.5047287  0.4811705

 Al 
  0.4992030  0.7430672  0.7534157

 Al 
  0.7378632  0.4903594  0.7446352

 Al 
  0.7489369  0.7646911  0.4939768

