32 
charge = 0 
 Al 
  0.9831766  0.0078263  0.9808698

 Al 
  0.9955658  0.2568883  0.2569403

 Al 
  0.2374313  0.9788265  0.2593448

 Al 
  0.2695089  0.2386949  0.9962539

 Al 
  0.4942094  0.9967799  0.0114190

 Al 
  0.4986152  0.2506819  0.2379919

 Al 
  0.7437441  0.0085293  0.2398198

 Al 
  0.7732959  0.2766274  0.0191055

 Al 
  0.0086097  0.4932157  0.0049911

 Al 
  0.9904126  0.7753935  0.2525828

 Al 
  0.2494072  0.4966103  0.2427306

 Al 
  0.2353126  0.7545926  0.0072534

 Al 
  0.9933333  0.9854500  0.5127531

 Al 
  0.9852359  0.2577397  0.7565195

 Al 
  0.2358435  0.9640253  0.7458789

 Al 
  0.2460274  0.2463715  0.5119239

 Al 
  0.9934310  0.5245347  0.4996040

 Al 
  0.9983986  0.7391998  0.7553364

 Al 
  0.2720979  0.4898631  0.7704965

 Al 
  0.2577249  0.7343683  0.4983095

 Al 
  0.5059316  0.5158693  0.0009517

 Al 
  0.5082570  0.7435152  0.2398025

 Al 
  0.7558611  0.5099017  0.2355762

 Al 
  0.7610193  0.7448171  0.9889906

 Al 
  0.5041718  0.0022784  0.5000656

 Al 
  0.4888681  0.2426464  0.7501139

 Al 
  0.7423878  0.0167677  0.7446191

 Al 
  0.7634585  0.2438555  0.5013378

 Al 
  0.5199965  0.5084785  0.4823697

 Al 
  0.4982092  0.7442342  0.7531508

 Al 
  0.7418742  0.4874412  0.7484456

 Al 
  0.7485842  0.7639770  0.4944532

