32 
charge = 0 
 Al 
  0.9862680  0.0111418  0.9816754

 Al 
  0.9953356  0.2555975  0.2581221

 Al 
  0.2364871  0.9768613  0.2588139

 Al 
  0.2758539  0.2391218  0.9955794

 Al 
  0.4951723  0.9905760  0.0122915

 Al 
  0.4952836  0.2548314  0.2361022

 Al 
  0.7457737  0.0065393  0.2439508

 Al 
  0.7733231  0.2821234  0.0164410

 Al 
  0.0128125  0.4925486  0.0045716

 Al 
  0.9919162  0.7723652  0.2517326

 Al 
  0.2506646  0.4999282  0.2391775

 Al 
  0.2333313  0.7573833  0.0104945

 Al 
  0.9917331  0.9850379  0.5128929

 Al 
  0.9845119  0.2561420  0.7540270

 Al 
  0.2369524  0.9646292  0.7489901

 Al 
  0.2436290  0.2478281  0.5116504

 Al 
  0.9941327  0.5251139  0.5040048

 Al 
  0.9960571  0.7426934  0.7569353

 Al 
  0.2707242  0.4890414  0.7692070

 Al 
  0.2549329  0.7331036  0.4944075

 Al 
  0.5061395  0.5160153  0.9967823

 Al 
  0.5098671  0.7378137  0.2378979

 Al 
  0.7537968  0.5119982  0.2384028

 Al 
  0.7645810  0.7493552  0.9900252

 Al 
  0.5045542  0.9976313  0.5057757

 Al 
  0.4888855  0.2404510  0.7506175

 Al 
  0.7425301  0.0148050  0.7437416

 Al 
  0.7640859  0.2463455  0.5019863

 Al 
  0.5143817  0.5052089  0.4812225

 Al 
  0.4990557  0.7431377  0.7534243

 Al 
  0.7382840  0.4899597  0.7450757

 Al 
  0.7489419  0.7646750  0.4939780

