32 
charge = 0 
 Al 
  0.9838981  0.0087124  0.9809155

 Al 
  0.9953554  0.2566197  0.2571828

 Al 
  0.2370427  0.9780976  0.2592211

 Al 
  0.2713690  0.2388013  0.9960064

 Al 
  0.4943839  0.9952651  0.0117779

 Al 
  0.4977155  0.2517165  0.2373781

 Al 
  0.7442515  0.0080404  0.2408680

 Al 
  0.7735929  0.2782709  0.0186216

 Al 
  0.0096134  0.4928976  0.0049379

 Al 
  0.9908631  0.7748255  0.2524640

 Al 
  0.2497166  0.4974778  0.2417653

 Al 
  0.2347409  0.7553599  0.0080949

 Al 
  0.9928580  0.9852223  0.5128261

 Al 
  0.9848720  0.2573115  0.7559415

 Al 
  0.2359945  0.9639597  0.7466487

 Al 
  0.2454532  0.2467353  0.5119239

 Al 
  0.9936080  0.5248527  0.5007698

 Al 
  0.9978640  0.7401540  0.7557609

 Al 
  0.2719482  0.4895562  0.7703307

 Al 
  0.2569873  0.7340552  0.4972873

 Al 
  0.5059750  0.5160400  0.9998688

 Al 
  0.5087360  0.7419101  0.2392592

 Al 
  0.7552720  0.5103757  0.2361158

 Al 
  0.7619722  0.7458962  0.9892258

 Al 
  0.5043599  0.0011039  0.5015890

 Al 
  0.4887171  0.2421291  0.7502599

 Al 
  0.7424632  0.0164225  0.7442614

 Al 
  0.7637184  0.2443802  0.5015952

 Al 
  0.5186303  0.5077434  0.4819601

 Al 
  0.4983602  0.7438666  0.7532721

 Al 
  0.7409311  0.4879659  0.7476152

 Al 
  0.7487364  0.7642357  0.4942540

