32 
charge = 0 
 Al 
  0.9854388  0.0103572  0.9813165

 Al 
  0.9952428  0.2559725  0.2577756

 Al 
  0.2365700  0.9771162  0.2589525

 Al 
  0.2745297  0.2390129  0.9956722

 Al 
  0.4948616  0.9921737  0.0122048

 Al 
  0.4960509  0.2537907  0.2364363

 Al 
  0.7452663  0.0070454  0.2429273

 Al 
  0.7736028  0.2810047  0.0172912

 Al 
  0.0117086  0.4925684  0.0047300

 Al 
  0.9916143  0.7733182  0.2520358

 Al 
  0.2503453  0.4991325  0.2399968

 Al 
  0.2337533  0.7567521  0.0097161

 Al 
  0.9920561  0.9850193  0.5128954

 Al 
  0.9845144  0.2565133  0.7546978

 Al 
  0.2365477  0.9642666  0.7482031

 Al 
  0.2442577  0.2474618  0.5117878

 Al 
  0.9939570  0.5251398  0.5029602

 Al 
  0.9966945  0.7418927  0.7565578

 Al 
  0.2712650  0.4891453  0.7696896

 Al 
  0.2555963  0.7334204  0.4953393

 Al 
  0.5060764  0.5161106  0.9977934

 Al 
  0.5095391  0.7390674  0.2383100

 Al 
  0.7542374  0.5114239  0.2375278

 Al 
  0.7637481  0.7481610  0.9897369

 Al 
  0.5045555  0.9987897  0.5044354

 Al 
  0.4887246  0.2410351  0.7505148

 Al 
  0.7425313  0.0154423  0.7438209

 Al 
  0.7640340  0.2456215  0.5019182

 Al 
  0.5158358  0.5061148  0.4813871

 Al 
  0.4987860  0.7433209  0.7534107

 Al 
  0.7391404  0.4892208  0.7459371

 Al 
  0.7489159  0.7645909  0.4940189

