32 
charge = 0 
 Al 
  0.9835342  0.0082756  0.9808809

 Al 
  0.9954470  0.2567583  0.2570566

 Al 
  0.2372246  0.9784417  0.2592842

 Al 
  0.2704643  0.2387481  0.9961240

 Al 
  0.4942911  0.9960237  0.0116108

 Al 
  0.4981597  0.2511992  0.2376726

 Al 
  0.7439978  0.0082855  0.2403458

 Al 
  0.7734691  0.2774739  0.0188778

 Al 
  0.0091085  0.4930437  0.0049688

 Al 
  0.9906440  0.7751238  0.2525321

 Al 
  0.2495619  0.4970484  0.2422405

 Al 
  0.2350193  0.7549824  0.0076766

 Al 
  0.9930895  0.9853250  0.5127939

 Al 
  0.9850379  0.2575231  0.7562336

 Al 
  0.2359091  0.9639733  0.7462638

 Al 
  0.2457428  0.2465534  0.5119289

 Al 
  0.9935201  0.5247092  0.5001931

 Al 
  0.9981350  0.7396849  0.7555505

 Al 
  0.2720385  0.4897010  0.7704272

 Al 
  0.2573524  0.7342124  0.4977934

 Al 
  0.5059527  0.5159658  0.0004047

 Al 
  0.5085033  0.7426959  0.2395253

 Al 
  0.7555604  0.5101344  0.2358324

 Al 
  0.7615019  0.7453530  0.9891070

 Al 
  0.5042733  0.0016880  0.5008354

 Al 
  0.4887803  0.2423902  0.7501881

 Al 
  0.7424298  0.0166069  0.7444285

 Al 
  0.7635959  0.2441104  0.5014752

 Al 
  0.5193146  0.5081172  0.4821543

 Al 
  0.4982786  0.7440424  0.7532152

 Al 
  0.7413989  0.4876949  0.7480310

 Al 
  0.7486659  0.7641132  0.4943468

