32 
charge = 0 
 Al 
  0.9821494  0.0063920  0.9809935

 Al 
  0.9960782  0.2572150  0.2566432

 Al 
  0.2382048  0.9802225  0.2595082

 Al 
  0.2663457  0.2385352  0.9967328

 Al 
  0.4940213  0.9990322  0.0106777

 Al 
  0.5000433  0.2491374  0.2390995

 Al 
  0.7429954  0.0092458  0.2382122

 Al 
  0.7724704  0.2737810  0.0195980

 Al 
  0.0071457  0.4938902  0.0050146

 Al 
  0.9896416  0.7760297  0.2526323

 Al 
  0.2489543  0.4952490  0.2442973

 Al 
  0.2362791  0.7533476  0.0059564

 Al 
  0.9941315  0.9859561  0.5125910

 Al 
  0.9860267  0.2584117  0.7573276

 Al 
  0.2357767  0.9644139  0.7447317

 Al 
  0.2468665  0.2458232  0.5118447

 Al 
  0.9931637  0.5238317  0.4977489

 Al 
  0.9991349  0.7376467  0.7546631

 Al 
  0.2720843  0.4904460  0.7705522

 Al 
  0.2588919  0.7348287  0.4999047

 Al 
  0.5058648  0.5154374  0.0026509

 Al 
  0.5074340  0.7461660  0.2407034

 Al 
  0.7568289  0.5092557  0.2349797

 Al 
  0.7594983  0.7432627  0.9886503

 Al 
  0.5037808  0.0040790  0.4976424

 Al 
  0.4892815  0.2433976  0.7498800

 Al 
  0.7422157  0.0171031  0.7453270

 Al 
  0.7629449  0.2431835  0.5008267

 Al 
  0.5220348  0.5094884  0.4831419

 Al 
  0.4980731  0.7449149  0.7529095

 Al 
  0.7433555  0.4867804  0.7496956

 Al 
  0.7482810  0.7635006  0.4948616

