32 
charge = 0 
 Al 
  0.9811977  0.0048154  0.9813450

 Al 
  0.9968269  0.2574303  0.2564304

 Al 
  0.2391924  0.9819737  0.2596332

 Al 
  0.2627370  0.2383694  0.9973417

 Al 
  0.4939161  0.0012561  0.0096703

 Al 
  0.5015445  0.2476301  0.2404275

 Al 
  0.7422838  0.0099215  0.2365774

 Al 
  0.7711883  0.2704817  0.0197998

 Al 
  0.0057262  0.4947998  0.0049738

 Al 
  0.9887654  0.7764096  0.2525184

 Al 
  0.2485298  0.4938270  0.2460126

 Al 
  0.2373818  0.7520024  0.0046359

 Al 
  0.9950151  0.9866677  0.5123632

 Al 
  0.9871194  0.2591035  0.7580602

 Al 
  0.2359017  0.9651725  0.7436154

 Al 
  0.2476759  0.2452775  0.5116752

 Al 
  0.9928952  0.5228454  0.4957663

 Al 
  0.9997822  0.7359537  0.7539478

 Al 
  0.2717935  0.4911700  0.7703752

 Al 
  0.2601270  0.7352668  0.5015531

 Al 
  0.5057844  0.5147852  0.0044391

 Al 
  0.5064923  0.7490953  0.2417046

 Al 
  0.7578808  0.5086964  0.2346493

 Al 
  0.7578721  0.7418011  0.9883186

 Al 
  0.5032709  0.0059230  0.4950658

 Al 
  0.4899163  0.2441203  0.7496399

 Al 
  0.7419682  0.0172083  0.7462304

 Al 
  0.7622915  0.2426514  0.5001671

 Al 
  0.5240557  0.5103794  0.4840998

 Al 
  0.4980558  0.7457477  0.7526113

 Al 
  0.7449099  0.4862754  0.7509504

 Al 
  0.7478986  0.7629437  0.4954025

