32 
charge = 0 
 Al 
  0.9803450  0.0031100  0.9819130

 Al 
  0.9977934  0.2575120  0.2562955

 Al 
  0.2403631  0.9840404  0.2597050

 Al 
  0.2587533  0.2381961  0.9980731

 Al 
  0.4938840  0.0034169  0.0083931

 Al 
  0.5030667  0.2462168  0.2419484

 Al 
  0.7416440  0.0105143  0.2349562

 Al 
  0.7694780  0.2667999  0.0196958

 Al 
  0.0043661  0.4959198  0.0048785

 Al 
  0.9878088  0.7765371  0.2522388

 Al 
  0.2481573  0.4923853  0.2478553

 Al 
  0.2386082  0.7505903  0.0033328

 Al 
  0.9959532  0.9875761  0.5120662

 Al 
  0.9885030  0.2597817  0.7586939

 Al 
  0.2362173  0.9663074  0.7425647

 Al 
  0.2484469  0.2447515  0.5114252

 Al 
  0.9926353  0.5215905  0.4936921

 Al 
  0.0003267  0.7341604  0.7531979

 Al 
  0.2712428  0.4920091  0.7699705

 Al 
  0.2614066  0.7356666  0.5032040

 Al 
  0.5056742  0.5139201  0.0062843

 Al 
  0.5054490  0.7522375  0.2427850

 Al 
  0.7589822  0.5082323  0.2345923

 Al 
  0.7561680  0.7404720  0.9879944

 Al 
  0.5026645  0.0077707  0.4924001

 Al 
  0.4907480  0.2448146  0.7494084

 Al 
  0.7416489  0.0170746  0.7473009

 Al 
  0.7615192  0.2422689  0.4993787

 Al 
  0.5260210  0.5111282  0.4852210

 Al 
  0.4981672  0.7467180  0.7522746

 Al 
  0.7465014  0.4859326  0.7521954

 Al 
  0.7474568  0.7623472  0.4960670

