32 
charge = 0 
 Al 
  0.9792547  0.0001361  0.9832434

 Al 
  0.9997426  0.2573004  0.2562126

 Al 
  0.2425313  0.9879362  0.2596666

 Al 
  0.2517165  0.2378843  0.9994691

 Al 
  0.4939508  0.0066965  0.0057683

 Al 
  0.5054292  0.2442800  0.2447280

 Al 
  0.7408544  0.0111863  0.2324860

 Al 
  0.7659163  0.2602718  0.0188518

 Al 
  0.0023118  0.4980954  0.0046508

 Al 
  0.9861740  0.7762153  0.2514467

 Al 
  0.2477278  0.4901193  0.2510284

 Al 
  0.2408284  0.7482501  0.0013675

 Al 
  0.9974964  0.9894176  0.5114425

 Al 
  0.9912975  0.2607581  0.7594636

 Al 
  0.2371145  0.9689421  0.7411044

 Al 
  0.2495817  0.2439916  0.5108881

 Al 
  0.9922553  0.5190424  0.4902468

 Al 
  0.0009566  0.7311680  0.7519294

 Al 
  0.2698641  0.4935337  0.7688567

 Al 
  0.2634845  0.7362024  0.5057435

 Al 
  0.5053933  0.5121009  0.0093003

 Al 
  0.5035988  0.7575726  0.2446240

 Al 
  0.7607866  0.5077026  0.2350775

 Al 
  0.7533130  0.7386973  0.9875006

 Al 
  0.5015383  0.0106616  0.4880810

 Al 
  0.4924459  0.2458727  0.7490904

 Al 
  0.7410066  0.0163556  0.7492896

 Al 
  0.7600700  0.2419744  0.4979011

 Al 
  0.5289738  0.5119734  0.4873212

 Al 
  0.4986387  0.7485323  0.7517054

 Al 
  0.7490607  0.4857309  0.7541471

 Al 
  0.7466883  0.7614004  0.4973677

