32 
charge = 0 
 Al 
  0.9788538  0.9983974  0.9841753

 Al 
  0.0009863  0.2569588  0.2562150

 Al 
  0.2438233  0.9903520  0.2595317

 Al 
  0.2475868  0.2376813  0.0003379

 Al 
  0.4940213  0.0083647  0.0040147

 Al 
  0.5066098  0.2434842  0.2463987

 Al 
  0.7405945  0.0113324  0.2312757

 Al 
  0.7635674  0.2564675  0.0179942

 Al 
  0.0012648  0.4994567  0.0045060

 Al 
  0.9852668  0.7757463  0.2508354

 Al 
  0.2476251  0.4889609  0.2528588

 Al 
  0.2421774  0.7469593  0.0004096

 Al 
  0.9983219  0.9906218  0.5110131

 Al 
  0.9931241  0.2611826  0.7597272

 Al 
  0.2378137  0.9708492  0.7404794

 Al 
  0.2501398  0.2436451  0.5105378

 Al 
  0.9920821  0.5173729  0.4883471

 Al 
  0.0011584  0.7295258  0.7511905

 Al 
  0.2688654  0.4944248  0.7679991

 Al 
  0.2645970  0.7364252  0.5070071

 Al 
  0.5051532  0.5108769  0.0109512

 Al 
  0.5025061  0.7605713  0.2456586

 Al 
  0.7617519  0.5075269  0.2356529

 Al 
  0.7516967  0.7379610  0.9872531

 Al 
  0.5008675  0.0121492  0.4857878

 Al 
  0.4935473  0.2464309  0.7489592

 Al 
  0.7406032  0.0156824  0.7504765

 Al 
  0.7591877  0.2419868  0.4970125

 Al 
  0.5304304  0.5122086  0.4886132

 Al 
  0.4990706  0.7496473  0.7514046

 Al 
  0.7504307  0.4858089  0.7551767

 Al 
  0.7462737  0.7609401  0.4981981

