32 
charge = 0 
 Al 
  0.9786446  0.9962477  0.9854537

 Al 
  0.0025791  0.2562683  0.2562373

 Al 
  0.2453938  0.9934632  0.2592124

 Al 
  0.2424979  0.2374041  0.0014467

 Al 
  0.4941005  0.0101790  0.0016163

 Al 
  0.5078164  0.2429286  0.2484840

 Al 
  0.7405128  0.0111900  0.2300839

 Al 
  0.7604314  0.2518675  0.0165276

 Al 
  0.0001200  0.5011955  0.0043426

 Al 
  0.9842347  0.7748849  0.2499455

 Al 
  0.2476944  0.4877395  0.2550901

 Al 
  0.2439124  0.7454619  0.9994505

 Al 
  0.9992352  0.9922368  0.5104091

 Al 
  0.9955695  0.2615106  0.7598423

 Al 
  0.2388483  0.9736164  0.7399832

 Al 
  0.2507277  0.2433407  0.5100886

 Al 
  0.9919249  0.5151329  0.4861504

 Al 
  0.0012438  0.7276509  0.7502488

 Al 
  0.2674571  0.4954878  0.7667368

 Al 
  0.2658346  0.7366108  0.5082966

 Al 
  0.5047411  0.5091877  0.0128744

 Al 
  0.5011546  0.7640995  0.2468764

 Al 
  0.7628137  0.5074217  0.2366479

 Al 
  0.7497314  0.7373793  0.9870006

 Al 
  0.5000631  0.0137481  0.4832657

 Al 
  0.4950027  0.2470818  0.7488639

 Al 
  0.7401057  0.0145946  0.7519133

 Al 
  0.7580776  0.2421798  0.4959235

 Al 
  0.5319291  0.5122098  0.4902666

 Al 
  0.4997797  0.7510792  0.7510915

 Al 
  0.7519801  0.4860873  0.7563351

 Al 
  0.7458443  0.7605143  0.4992946

