32 
charge = 0 
 Al 
  0.9787040  0.9972947  0.9848151

 Al 
  0.0017982  0.2566457  0.2562249

 Al 
  0.2446352  0.9919299  0.2593919

 Al 
  0.2449730  0.2375439  0.0009034

 Al 
  0.4940659  0.0093300  0.0028167

 Al 
  0.5072670  0.2431328  0.2474667

 Al 
  0.7405178  0.0113101  0.2306173

 Al 
  0.7619907  0.2540889  0.0173024

 Al 
  0.0006571  0.5003428  0.0044181

 Al 
  0.9847211  0.7753453  0.2503960

 Al 
  0.2476301  0.4883026  0.2540085

 Al 
  0.2430560  0.7461772  0.9998849

 Al 
  0.9988070  0.9914324  0.5107148

 Al 
  0.9943518  0.2613819  0.7598176

 Al 
  0.2383211  0.9722081  0.7401837

 Al 
  0.2504554  0.2434694  0.5103089

 Al 
  0.9919930  0.5162480  0.4871962

 Al 
  0.0012252  0.7285394  0.7507141

 Al 
  0.2681662  0.4949780  0.7673803

 Al 
  0.2652530  0.7365328  0.5077100

 Al 
  0.5049602  0.5100366  0.0119536

 Al 
  0.5018130  0.7624090  0.2462935

 Al 
  0.7623187  0.5074588  0.2361244

 Al 
  0.7506856  0.7376145  0.9871157

 Al 
  0.5004492  0.0130055  0.4844451

 Al 
  0.4942812  0.2467687  0.7489010

 Al 
  0.7403458  0.0151614  0.7512215

 Al 
  0.7586196  0.2420610  0.4964507

 Al 
  0.5312435  0.5122519  0.4894547

 Al 
  0.4994084  0.7503750  0.7512351

 Al 
  0.7512462  0.4859264  0.7557868

 Al 
  0.7460386  0.7606987  0.4987513

