32 
charge = 0 
 Al 
  0.9789652  0.9989666  0.9838585

 Al 
  0.0005718  0.2570900  0.2562113

 Al 
  0.2434001  0.9895500  0.2595862

 Al 
  0.2489406  0.2377494  0.0000495

 Al 
  0.4939978  0.0078375  0.0046074

 Al 
  0.5062410  0.2437144  0.2458492

 Al 
  0.7406626  0.0113076  0.2316507

 Al 
  0.7643570  0.2577100  0.0183060

 Al 
  0.0015965  0.4990050  0.0045530

 Al 
  0.9855576  0.7759220  0.2510470

 Al 
  0.2476449  0.4893260  0.2522610

 Al 
  0.2417306  0.7473751  0.0007066

 Al 
  0.9980595  0.9902171  0.5111591

 Al 
  0.9925103  0.2610576  0.7596567

 Al 
  0.2375712  0.9701945  0.7406638

 Al 
  0.2499653  0.2437491  0.5106554

 Al 
  0.9921341  0.5179335  0.4889585

 Al 
  0.0011051  0.7300530  0.7514343

 Al 
  0.2692070  0.4941352  0.7682961

 Al 
  0.2642419  0.7363583  0.5066123

 Al 
  0.5052398  0.5112915  0.0104190

 Al 
  0.5028650  0.7596010  0.2453245

 Al 
  0.7614437  0.5075751  0.2354426

 Al 
  0.7522227  0.7381763  0.9873311

 Al 
  0.5010866  0.0116789  0.4865180

 Al 
  0.4931786  0.2462514  0.7489976

 Al 
  0.7407368  0.0159237  0.7500879

 Al 
  0.7594797  0.2419682  0.4973046

 Al 
  0.5299762  0.5121529  0.4881850

 Al 
  0.4989159  0.7492785  0.7514999

 Al 
  0.7499926  0.4857680  0.7548475

 Al 
  0.7464049  0.7610811  0.4979209

