32 
charge = 0 
 Al 
  0.9794329  0.0007302  0.9829489

 Al 
  0.9993317  0.2573796  0.2562175

 Al 
  0.2420907  0.9871331  0.2596926

 Al 
  0.2531286  0.2379486  0.9991795

 Al 
  0.4939298  0.0060851  0.0063314

 Al 
  0.5049886  0.2446117  0.2441624

 Al 
  0.7409782  0.0110923  0.2329427

 Al 
  0.7666774  0.2615786  0.0190832

 Al 
  0.0026942  0.4976424  0.0046990

 Al 
  0.9864945  0.7763291  0.2516323

 Al 
  0.2477897  0.4905450  0.2503973

 Al 
  0.2403755  0.7487043  0.0017289

 Al 
  0.9971994  0.9890253  0.5115774

 Al 
  0.9907034  0.2605873  0.7593424

 Al 
  0.2369041  0.9683531  0.7413581

 Al 
  0.2493726  0.2441265  0.5110032

 Al 
  0.9923234  0.5195844  0.4909175

 Al 
  0.0008601  0.7317509  0.7521806

 Al 
  0.2701747  0.4932268  0.7691166

 Al 
  0.2630860  0.7361108  0.5052720

 Al 
  0.5054614  0.5124932  0.0087174

 Al 
  0.5039701  0.7565244  0.2442627

 Al 
  0.7604401  0.5077843  0.2349290

 Al 
  0.7538736  0.7390005  0.9875922

 Al 
  0.5017672  0.0101171  0.4889077

 Al 
  0.4920858  0.2456735  0.7491448

 Al 
  0.7411415  0.0165437  0.7488850

 Al 
  0.7603671  0.2419992  0.4982031

 Al 
  0.5284293  0.5118484  0.4868893

 Al 
  0.4985174  0.7481585  0.7518143

 Al 
  0.7485706  0.4857359  0.7537770

 Al 
  0.7468380  0.7615749  0.4970942

