32 
charge = 0 
 Al 
  0.9790976  0.9995471  0.9835466

 Al 
  0.0001572  0.2572039  0.2562101

 Al 
  0.2429682  0.9887444  0.2596307

 Al 
  0.2503181  0.2378174  0.9997599

 Al 
  0.4939731  0.0072806  0.0051928

 Al 
  0.5058475  0.2439805  0.2452911

 Al 
  0.7407480  0.0112593  0.2320553

 Al 
  0.7651416  0.2589798  0.0185919

 Al 
  0.0019454  0.4985508  0.0046013

 Al 
  0.9858608  0.7760792  0.2512512

 Al 
  0.2476796  0.4897121  0.2516509

 Al 
  0.2412801  0.7478058  0.0010272

 Al 
  0.9977835  0.9898149  0.5113027

 Al 
  0.9919002  0.2609153  0.7595688

 Al 
  0.2373373  0.9695572  0.7408730

 Al 
  0.2497785  0.2438654  0.5107717

 Al 
  0.9921922  0.5184917  0.4895933

 Al 
  0.0010383  0.7306024  0.7516806

 Al 
  0.2695399  0.4938369  0.7685832

 Al 
  0.2638706  0.7362841  0.5061915

 Al 
  0.5053203  0.5116999  0.0098683

 Al 
  0.5032288  0.7585998  0.2449780

 Al 
  0.7611220  0.5076333  0.2352495

 Al 
  0.7527622  0.7384226  0.9874128

 Al 
  0.5013106  0.0111826  0.4872828

 Al 
  0.4928110  0.2460658  0.7490409

 Al 
  0.7408717  0.0161477  0.7496918

 Al 
  0.7597743  0.2419633  0.4976004

 Al 
  0.5294899  0.5120737  0.4877531

 Al 
  0.4987723  0.7489060  0.7516002

 Al 
  0.7495359  0.4857420  0.7545047

 Al 
  0.7465435  0.7612346  0.4976437

