32 
charge = 0 
 Al 
  0.9786768  0.9952564  0.9860861

 Al 
  0.0033191  0.2558302  0.2562447

 Al 
  0.2460918  0.9949458  0.2589934

 Al 
  0.2401663  0.2372655  0.0019665

 Al 
  0.4941191  0.0109190  0.0004195

 Al 
  0.5082607  0.2428704  0.2494431

 Al 
  0.7405772  0.0109747  0.2296767

 Al 
  0.7589018  0.2498131  0.0156787

 Al 
  0.9996522  0.5020073  0.0042820

 Al 
  0.9838077  0.7743738  0.2494889

 Al 
  0.2478194  0.4872692  0.2561024

 Al 
  0.2447416  0.7448171  0.9991065

 Al 
  0.9996040  0.9930313  0.5100948

 Al 
  0.9967675  0.2615700  0.7598052

 Al 
  0.2393916  0.9750668  0.7398780

 Al 
  0.2509603  0.2432578  0.5098795

 Al 
  0.9918791  0.5140315  0.4852124

 Al 
  0.0012215  0.7268638  0.7497933

 Al 
  0.2667455  0.4959495  0.7660759

 Al 
  0.2663395  0.7366640  0.5087706

 Al 
  0.5044948  0.5083325  0.0137147

 Al 
  0.5005334  0.7656403  0.2474073

 Al 
  0.7632333  0.5074068  0.2372147

 Al 
  0.7488305  0.7372506  0.9869103

 Al 
  0.4997116  0.0143792  0.4822558

 Al 
  0.4957044  0.2473751  0.7488466

 Al 
  0.7398879  0.0139906  0.7525457

 Al 
  0.7575615  0.2423333  0.4954359

 Al 
  0.5324910  0.5120873  0.4910487

 Al 
  0.5001794  0.7517573  0.7509764

 Al 
  0.7526348  0.4862829  0.7568227

 Al 
  0.7456920  0.7603844  0.4998243

