32 
charge = 0 
 Al 
  0.9792919  0.9925660  0.9879041

 Al 
  0.0052572  0.2541421  0.2562299

 Al 
  0.2478231  0.9991448  0.2580689

 Al 
  0.2339315  0.2368596  0.0033748

 Al 
  0.4940325  0.0125885  0.9968727

 Al 
  0.5090181  0.2435436  0.2519974

 Al 
  0.7411391  0.0097730  0.2291817

 Al 
  0.7544787  0.2445708  0.0126924

 Al 
  0.9986065  0.5042114  0.0042028

 Al 
  0.9829093  0.7725657  0.2481164

 Al 
  0.2485681  0.4863707  0.2587855

 Al 
  0.2471227  0.7432503  0.9985434

 Al 
  0.0004059  0.9953888  0.5090887

 Al 
  0.0002599  0.2613373  0.7593448

 Al 
  0.2411032  0.9796941  0.7400871

 Al 
  0.2514702  0.2432912  0.5093325

 Al 
  0.9918729  0.5107891  0.4830120

 Al 
  0.0009566  0.7250705  0.7484283

 Al 
  0.2646082  0.4970509  0.7639968

 Al 
  0.2674311  0.7367160  0.5095738

 Al 
  0.5035827  0.5056990  0.0158346

 Al 
  0.4988639  0.7694372  0.2487117

 Al 
  0.7640315  0.5074378  0.2391416

 Al 
  0.7463492  0.7374326  0.9867841

 Al 
  0.4988812  0.0156527  0.4801854

 Al 
  0.4977080  0.2481956  0.7488949

 Al 
  0.7394040  0.0119895  0.7540802

 Al 
  0.7561655  0.2429657  0.4942070

 Al 
  0.5335120  0.5112804  0.4932305

 Al 
  0.5015272  0.7536582  0.7507871

 Al 
  0.7541879  0.4870303  0.7579711

 Al 
  0.7455002  0.7602965  0.5013353

