32 
charge = 0 
 Al 
  0.9810480  0.9896973  0.9899225

 Al 
  0.0069898  0.2513242  0.2561024

 Al 
  0.2492463  0.0039194  0.2563833

 Al 
  0.2275803  0.2364400  0.0048092

 Al 
  0.4935436  0.0137753  0.9926798

 Al 
  0.5089699  0.2459346  0.2545171

 Al 
  0.7424187  0.0073053  0.2299342

 Al 
  0.7493391  0.2397555  0.0081692

 Al 
  0.9979419  0.5064601  0.0043414

 Al 
  0.9826246  0.7698319  0.2465113

 Al 
  0.2502228  0.4861752  0.2614858

 Al 
  0.2498899  0.7419719  0.9986424

 Al 
  0.0008861  0.9982872  0.5076531

 Al 
  0.0043352  0.2602483  0.7581036

 Al 
  0.2433382  0.9859623  0.7412715

 Al 
  0.2518316  0.2439050  0.5088152

 Al 
  0.9921501  0.5068549  0.4814873

 Al 
  0.0003849  0.7239493  0.7466660

 Al 
  0.2620105  0.4978578  0.7612668

 Al 
  0.2679793  0.7367160  0.5094834

 Al 
  0.5021113  0.5022388  0.0177875

 Al 
  0.4971425  0.7726288  0.2498181

 Al 
  0.7640414  0.5074972  0.2418717

 Al 
  0.7435176  0.7386318  0.9869524

 Al 
  0.4983107  0.0161267  0.4794726

 Al 
  0.4999851  0.2492377  0.7491003

 Al 
  0.7392443  0.0092297  0.7552398

 Al 
  0.7547300  0.2439718  0.4931649

 Al 
  0.5335800  0.5095181  0.4956772

 Al 
  0.5033971  0.7557398  0.7508156

 Al 
  0.7554180  0.4881479  0.7588523

 Al 
  0.7457910  0.7606653  0.5030036

