32 
charge = 0 
 Al 
  0.9801470  0.9909163  0.9890649

 Al 
  0.0063165  0.2526620  0.2561742

 Al 
  0.2487067  0.0018539  0.2571989

 Al 
  0.2302262  0.2366083  0.0042151

 Al 
  0.4938159  0.0133471  0.9945003

 Al 
  0.5091035  0.2446921  0.2534825

 Al 
  0.7417900  0.0085082  0.2294329

 Al 
  0.7515717  0.2416885  0.0102730

 Al 
  0.9981622  0.5055270  0.0042486

 Al 
  0.9826370  0.7711042  0.2472006

 Al 
  0.2494010  0.4861517  0.2603633

 Al 
  0.2486869  0.7424583  0.9985075

 Al 
  0.0007302  0.9970051  0.5083177

 Al 
  0.0025679  0.2608299  0.7587372

 Al 
  0.2423370  0.9831196  0.7406391

 Al 
  0.2516979  0.2435585  0.5090243

 Al 
  0.9919880  0.5085912  0.4820096

 Al 
  0.0006584  0.7243045  0.7474618

 Al 
  0.2631528  0.4975694  0.7624944

 Al 
  0.2678370  0.7367098  0.5096505

 Al 
  0.5028043  0.5038006  0.0170016

 Al 
  0.4978640  0.7713999  0.2493886

 Al 
  0.7641676  0.5074774  0.2406267

 Al 
  0.7447552  0.7379882  0.9868336

 Al 
  0.4985038  0.0160475  0.4795579

 Al 
  0.4990013  0.2487612  0.7489951

 Al 
  0.7392481  0.0104822  0.7548228

 Al 
  0.7553277  0.2435065  0.4935634

 Al 
  0.5336951  0.5103869  0.4946191

 Al 
  0.5025519  0.7548550  0.7507760

 Al 
  0.7549540  0.4876368  0.7585256

 Al 
  0.7455955  0.7604512  0.5022944

