32 
charge = 0 
 Al 
  0.9814044  0.9892889  0.9902084

 Al 
  0.0071890  0.2508279  0.2560727

 Al 
  0.2494047  0.0046235  0.2560752

 Al 
  0.2267140  0.2363893  0.0050022

 Al 
  0.4934285  0.0138941  0.9920623

 Al 
  0.5088894  0.2464259  0.2548500

 Al 
  0.7426551  0.0068536  0.2301643

 Al 
  0.7485756  0.2391478  0.0074043

 Al 
  0.9978900  0.5067620  0.0043859

 Al 
  0.9826605  0.7693666  0.2462811

 Al 
  0.2505383  0.4862197  0.2618534

 Al 
  0.2503020  0.7418296  0.9987179

 Al 
  0.0009232  0.9987315  0.5074105

 Al 
  0.0049354  0.2600131  0.7578536

 Al 
  0.2436897  0.9869747  0.7415264

 Al 
  0.2518724  0.2440510  0.5087471

 Al 
  0.9922207  0.5062509  0.4813574

 Al 
  0.0002859  0.7238738  0.7463814

 Al 
  0.2616158  0.4979345  0.7608324

 Al 
  0.2679954  0.7367234  0.5093857

 Al 
  0.5018563  0.5016831  0.0180350

 Al 
  0.4969036  0.7729939  0.2499468

 Al 
  0.7639523  0.5074996  0.2423147

 Al 
  0.7430895  0.7388904  0.9870105

 Al 
  0.4982625  0.0161118  0.4795208

 Al 
  0.5003205  0.2494109  0.7491399

 Al 
  0.7392679  0.0087842  0.7553512

 Al 
  0.7545344  0.2441377  0.4930461

 Al 
  0.5334909  0.5091889  0.4960386

 Al 
  0.5036954  0.7560344  0.7508378

 Al 
  0.7555542  0.4883285  0.7589463

 Al 
  0.7458814  0.7607532  0.5032399

