32 
charge = 0 
 Al 
  0.9866195  0.9850564  0.9929904

 Al 
  0.0082756  0.2444285  0.2555987

 Al 
  0.2504208  0.0121690  0.2519789

 Al 
  0.2185362  0.2362494  0.0067076

 Al 
  0.4914472  0.0144807  0.9856492

 Al 
  0.5071506  0.2534107  0.2578919

 Al 
  0.7457465  0.0010618  0.2343399

 Al 
  0.7403383  0.2339736  0.9978504

 Al 
  0.9979197  0.5094698  0.0052064

 Al 
  0.9843881  0.7633818  0.2440931

 Al 
  0.2548661  0.4877407  0.2653705

 Al 
  0.2547708  0.7409509  0.0002760

 Al 
  0.0009851  0.0037350  0.5042906

 Al 
  0.0111294  0.2563871  0.7541743

 Al 
  0.2477798  0.9990755  0.7452824

 Al 
  0.2522177  0.2464643  0.5080615

 Al 
  0.9935288  0.4993082  0.4814527

 Al 
  0.9991399  0.7245594  0.7429112

 Al 
  0.2572447  0.4982204  0.7557076

 Al 
  0.2671848  0.7372172  0.5072744

 Al 
  0.4986597  0.4949854  0.0200262

 Al 
  0.4945721  0.7753589  0.2508910

 Al 
  0.7615353  0.5073103  0.2475422

 Al 
  0.7381677  0.7427145  0.9882432

 Al 
  0.4982674  0.0148594  0.4822892

 Al 
  0.5039825  0.2517512  0.7496473

 Al 
  0.7404646  0.0034998  0.7555913

 Al 
  0.7526880  0.2460460  0.4923308

 Al 
  0.5310319  0.5048129  0.5001213

 Al 
  0.5069984  0.7589067  0.7511621

 Al 
  0.7564056  0.4904287  0.7595082

 Al 
  0.7475373  0.7619846  0.5055393

