32 
charge = 0 
 Al 
  0.9853435  0.9859153  0.9924620

 Al 
  0.0082224  0.2458975  0.2557175

 Al 
  0.2502958  0.0106109  0.2529330

 Al 
  0.2200609  0.2362012  0.0064168

 Al 
  0.4919707  0.0144535  0.9869301

 Al 
  0.5076184  0.2517474  0.2573326

 Al 
  0.7450374  0.0023662  0.2332360

 Al 
  0.7420425  0.2348621  0.0000074

 Al 
  0.9978380  0.5089958  0.0049874

 Al 
  0.9838251  0.7647740  0.2444916

 Al 
  0.2538463  0.4872766  0.2646998

 Al 
  0.2538364  0.7410400  0.9998602

 Al 
  0.0010086  0.0026707  0.5050146

 Al 
  0.0099042  0.2572930  0.7550802

 Al 
  0.2468863  0.9963975  0.7443691

 Al 
  0.2521484  0.2458430  0.5082075

 Al 
  0.9931711  0.5008193  0.4812138

 Al 
  0.9993787  0.7241919  0.7436934

 Al 
  0.2581692  0.4982315  0.7568363

 Al 
  0.2674954  0.7370353  0.5078474

 Al 
  0.4993825  0.4964816  0.0197206

 Al 
  0.4950238  0.7750953  0.2507549

 Al 
  0.7622519  0.5073882  0.2464024

 Al 
  0.7392419  0.7417863  0.9878905

 Al 
  0.4981956  0.0152641  0.4813957

 Al 
  0.5032102  0.2511881  0.7495384

 Al 
  0.7400636  0.0046644  0.7556854

 Al 
  0.7530345  0.2456425  0.4923989

 Al 
  0.5317620  0.5058240  0.4992302

 Al 
  0.5063178  0.7583634  0.7510952

 Al 
  0.7563140  0.4899745  0.7594500

 Al 
  0.7470992  0.7617073  0.5051025

