32 
charge = 0 
 Al 
  0.9836345  0.9872024  0.9916291

 Al 
  0.0079711  0.2479444  0.2558747

 Al 
  0.2500384  0.0082954  0.2542523

 Al 
  0.2224853  0.2362136  0.0059205

 Al 
  0.4926353  0.0143260  0.9888793

 Al 
  0.5082187  0.2494716  0.2564403

 Al 
  0.7440473  0.0042151  0.2318227

 Al 
  0.7445733  0.2363447  0.0030419

 Al 
  0.9977823  0.5082063  0.0047077

 Al 
  0.9831914  0.7666873  0.2451413

 Al 
  0.2524454  0.4867296  0.2636528

 Al 
  0.2524627  0.7412579  0.9993231

 Al 
  0.0010160  0.0011175  0.5060133

 Al 
  0.0080231  0.2584897  0.7562868

 Al 
  0.2456079  0.9925882  0.7431377

 Al 
  0.2520482  0.2450374  0.5084154

 Al 
  0.9927281  0.5029850  0.4810678

 Al 
  0.9997352  0.7238652  0.7447923

 Al 
  0.2595206  0.4981870  0.7584451

 Al 
  0.2678197  0.7368521  0.5085763

 Al 
  0.5003985  0.4985941  0.0191599

 Al 
  0.4957230  0.7744914  0.2505012

 Al 
  0.7631070  0.5074637  0.2447626

 Al 
  0.7407777  0.7405326  0.9874647

 Al 
  0.4981536  0.0157319  0.4803723

 Al 
  0.5020816  0.2504331  0.7493763

 Al 
  0.7396243  0.0063239  0.7556854

 Al 
  0.7535815  0.2450473  0.4925759

 Al 
  0.5326320  0.5072311  0.4979630

 Al 
  0.5052955  0.7575046  0.7509888

 Al 
  0.7560987  0.4893198  0.7593114

 Al 
  0.7465373  0.7613076  0.5044156

