32 
charge = 0 
 Al 
  0.9841741  0.9867754  0.9919101

 Al 
  0.0080763  0.2472860  0.2558252

 Al 
  0.2501349  0.0090602  0.2538303

 Al 
  0.2216635  0.2361999  0.0060925

 Al 
  0.4924298  0.0143792  0.9882295

 Al 
  0.5080343  0.2501968  0.2567435

 Al 
  0.7443654  0.0036174  0.2322595

 Al 
  0.7437379  0.2358324  0.0020618

 Al 
  0.9977910  0.5084773  0.0047943

 Al 
  0.9833746  0.7660747  0.2449198

 Al 
  0.2528934  0.4868917  0.2640055

 Al 
  0.2529157  0.7411737  0.9994889

 Al 
  0.0010185  0.0016274  0.5056928

 Al 
  0.0086518  0.2581135  0.7559069

 Al 
  0.2460237  0.9938246  0.7435275

 Al 
  0.2520816  0.2452874  0.5083474

 Al 
  0.9928630  0.5022784  0.4810888

 Al 
  0.9996176  0.7239444  0.7444372

 Al 
  0.2590763  0.4982105  0.7579216

 Al 
  0.2677306  0.7369016  0.5083523

 Al 
  0.5000705  0.4979098  0.0193592

 Al 
  0.4954878  0.7747191  0.2505928

 Al 
  0.7628521  0.5074439  0.2452973

 Al 
  0.7402777  0.7409299  0.9875934

 Al 
  0.4981585  0.0155958  0.4806705

 Al 
  0.5024528  0.2506720  0.7494282

 Al 
  0.7397505  0.0057844  0.7557039

 Al 
  0.7533971  0.2452428  0.4925078

 Al 
  0.5323734  0.5067794  0.4983763

 Al 
  0.5056334  0.7577954  0.7510235

 Al 
  0.7561804  0.4895339  0.7593646

 Al 
  0.7467106  0.7614376  0.5046470

