32 
charge = 0 
 Al 
  0.9922479  0.9819217  0.9946550

 Al 
  0.0073845  0.2384771  0.2550418

 Al 
  0.2506670  0.0178098  0.2480583

 Al 
  0.2138013  0.2370749  0.0073511

 Al 
  0.4888991  0.0140971  0.9813116

 Al 
  0.5050616  0.2602990  0.2597025

 Al 
  0.7486362  0.9959507  0.2395463

 Al 
  0.7342384  0.2315405  0.9892047

 Al 
  0.9984865  0.5107000  0.0061990

 Al 
  0.9876033  0.7573635  0.2430387

 Al 
  0.2590825  0.4902220  0.2675882

 Al 
  0.2582966  0.7410648  0.0021076

 Al 
  0.0008539  0.0077372  0.5012425

 Al 
  0.0151354  0.2523204  0.7501299

 Al 
  0.2513180  0.0097470  0.7491943

 Al 
  0.2525580  0.2493466  0.5073920

 Al 
  0.9953468  0.4932862  0.4834686

 Al 
  0.9983813  0.7271558  0.7397134

 Al 
  0.2537288  0.4979456  0.7512153

 Al 
  0.2652752  0.7384981  0.5046371

 Al 
  0.4957242  0.4889238  0.0204396

 Al 
  0.4930474  0.7752215  0.2511608

 Al 
  0.7577818  0.5067781  0.2519690

 Al 
  0.7338783  0.7466784  0.9901688

 Al 
  0.4988441  0.0127320  0.4871083

 Al 
  0.5068660  0.2543179  0.7499567

 Al 
  0.7429051  0.9988652  0.7544416

 Al 
  0.7515692  0.2475001  0.4924954

 Al 
  0.5271583  0.5007413  0.5038179

 Al 
  0.5092632  0.7605465  0.7512685

 Al 
  0.7563809  0.4921947  0.7595094

 Al 
  0.7495780  0.7629437  0.5068660

