32 
charge = 0 
 Al 
  0.9915400  0.9822707  0.9945003

 Al 
  0.0075949  0.2391763  0.2551161

 Al 
  0.2506472  0.0172009  0.2485236

 Al 
  0.2142406  0.2369091  0.0073251

 Al 
  0.4892406  0.0141874  0.9817484

 Al 
  0.5053215  0.2594785  0.2595206

 Al 
  0.7482922  0.9965398  0.2388657

 Al 
  0.7348869  0.2317336  0.9902171

 Al 
  0.9984035  0.5106158  0.0060764

 Al 
  0.9871355  0.7581184  0.2431105

 Al 
  0.2585825  0.4898718  0.2673642

 Al 
  0.2578956  0.7410128  0.0018860

 Al 
  0.0008663  0.0072917  0.5016125

 Al 
  0.0147505  0.2528353  0.7506435

 Al 
  0.2509034  0.0084934  0.7487179

 Al 
  0.2525085  0.2489728  0.5074835

 Al 
  0.9950943  0.4939991  0.4831394

 Al 
  0.9984469  0.7267487  0.7400958

 Al 
  0.2541297  0.4979927  0.7517425

 Al 
  0.2655623  0.7382902  0.5049725

 Al 
  0.4960745  0.4896466  0.0204705

 Al 
  0.4932033  0.7753366  0.2511485

 Al 
  0.7583016  0.5068623  0.2514578

 Al 
  0.7343844  0.7461933  0.9898891

 Al 
  0.4987538  0.0130266  0.4864351

 Al 
  0.5065479  0.2539825  0.7499381

 Al 
  0.7425350  0.9994109  0.7546483

 Al 
  0.7516781  0.2473430  0.4924373

 Al 
  0.5277028  0.5012165  0.5033612

 Al 
  0.5090453  0.7604030  0.7512772

 Al 
  0.7564143  0.4919893  0.7595255

 Al 
  0.7493144  0.7628496  0.5067509

