32 
charge = 0 
 Al 
  0.9908259  0.9826333  0.9943283

 Al 
  0.0077781  0.2398965  0.2551903

 Al 
  0.2506262  0.0165561  0.2490013

 Al 
  0.2147282  0.2367618  0.0072818

 Al 
  0.4895785  0.0142666  0.9822212

 Al 
  0.5055839  0.2586369  0.2593263

 Al 
  0.7479395  0.9971499  0.2381850

 Al 
  0.7355762  0.2319588  0.9912616

 Al 
  0.9983231  0.5105106  0.0059502

 Al 
  0.9866814  0.7588795  0.2432008

 Al 
  0.2580664  0.4895315  0.2671242

 Al 
  0.2574811  0.7409695  0.0016571

 Al 
  0.0008811  0.0068239  0.5019912

 Al 
  0.0143273  0.2533550  0.7511596

 Al 
  0.2504765  0.0072039  0.7482303

 Al 
  0.2524603  0.2485991  0.5075739

 Al 
  0.9948480  0.4947305  0.4828288

 Al 
  0.9985236  0.7263601  0.7404869

 Al 
  0.2545456  0.4980372  0.7522858

 Al 
  0.2658383  0.7380959  0.5053104

 Al 
  0.4964333  0.4903866  0.0204755

 Al 
  0.4933704  0.7754270  0.2511299

 Al 
  0.7588127  0.5069415  0.2509306

 Al 
  0.7349042  0.7457007  0.9896181

 Al 
  0.4986671  0.0133162  0.4857755

 Al 
  0.5062126  0.2536496  0.7499134

 Al 
  0.7421811  0.9999715  0.7548389

 Al 
  0.7517982  0.2471784  0.4923890

 Al 
  0.5282338  0.5017078  0.5028996

 Al 
  0.5088065  0.7602396  0.7512784

 Al 
  0.7564403  0.4917776  0.7595379

 Al 
  0.7490496  0.7627469  0.5066185

