32 
charge = 0 
 Al 
  0.9929459  0.9815888  0.9947923

 Al 
  0.0071457  0.2378026  0.2549663

 Al 
  0.2506868  0.0183840  0.2476078

 Al 
  0.2134090  0.2372605  0.0073598

 Al 
  0.4885563  0.0139956  0.9809106

 Al 
  0.5048092  0.2610910  0.2598696

 Al 
  0.7489691  0.9953851  0.2402270

 Al 
  0.7336345  0.2313809  0.9882283

 Al 
  0.9985706  0.5107631  0.0063190

 Al 
  0.9880860  0.7566148  0.2429880

 Al 
  0.2595676  0.4905784  0.2677937

 Al 
  0.2586803  0.7411267  0.0023229

 Al 
  0.0008440  0.0081617  0.5008799

 Al 
  0.0154807  0.2518093  0.7496225

 Al 
  0.2517214  0.0109599  0.7496597

 Al 
  0.2526113  0.2497178  0.5072967

 Al 
  0.9956017  0.4925907  0.4838139

 Al 
  0.9983243  0.7275828  0.7393421

 Al 
  0.2533414  0.4978999  0.7507054

 Al 
  0.2649782  0.7387184  0.5043067

 Al 
  0.4953827  0.4882209  0.0203839

 Al 
  0.4929038  0.7750804  0.2511695

 Al 
  0.7572546  0.5066903  0.2524615

 Al 
  0.7333870  0.7471524  0.9904596

 Al 
  0.4989369  0.0124350  0.4877914

 Al 
  0.5071680  0.2546532  0.7499653

 Al 
  0.7432912  0.9983367  0.7542189

 Al 
  0.7514690  0.2476462  0.4925635

 Al 
  0.5266039  0.5002822  0.5042696

 Al 
  0.5094550  0.7606703  0.7512524

 Al 
  0.7563425  0.4923939  0.7594884

 Al 
  0.7498416  0.7630278  0.5069638

