32 
charge = 0 
 Al 
  0.9936327  0.9812695  0.9949136

 Al 
  0.0068808  0.2371553  0.2548896

 Al 
  0.2507091  0.0189199  0.2471734

 Al 
  0.2130649  0.2374660  0.0073536

 Al 
  0.4882135  0.0138842  0.9805480

 Al 
  0.5045629  0.2618546  0.2600243

 Al 
  0.7492921  0.9948418  0.2409039

 Al 
  0.7330751  0.2312522  0.9872890

 Al 
  0.9986548  0.5108039  0.0064353

 Al 
  0.9885798  0.7558759  0.2429558

 Al 
  0.2600329  0.4909410  0.2679805

 Al 
  0.2590478  0.7411972  0.0025308

 Al 
  0.0008391  0.0085615  0.5005272

 Al 
  0.0157839  0.2513069  0.7491213

 Al 
  0.2521100  0.0121294  0.7501114

 Al 
  0.2526669  0.2500866  0.5071989

 Al 
  0.9958604  0.4919175  0.4841753

 Al 
  0.9982798  0.7280258  0.7389832

 Al 
  0.2529714  0.4978528  0.7502116

 Al 
  0.2646701  0.7389523  0.5039812

 Al 
  0.4950510  0.4875390  0.0203035

 Al 
  0.4927714  0.7749171  0.2511744

 Al 
  0.7567224  0.5065987  0.2529343

 Al 
  0.7329117  0.7476152  0.9907591

 Al 
  0.4990322  0.0121343  0.4884795

 Al 
  0.5074501  0.2549874  0.7499666

 Al 
  0.7436909  0.9978256  0.7539812

 Al 
  0.7513786  0.2477835  0.4926415

 Al 
  0.5260396  0.4998441  0.5047164

 Al 
  0.5096220  0.7607742  0.7512289

 Al 
  0.7562980  0.4925858  0.7594649

 Al 
  0.7501027  0.7630996  0.5070442

