32 
charge = 0 
 Al 
  0.9943072  0.9809663  0.9950176

 Al 
  0.0065900  0.2365390  0.2548116

 Al 
  0.2507339  0.0194186  0.2467563

 Al 
  0.2127679  0.2376912  0.0073313

 Al 
  0.4878719  0.0137617  0.9802238

 Al 
  0.5043253  0.2625848  0.2601653

 Al 
  0.7496040  0.9943233  0.2415747

 Al 
  0.7325627  0.2311569  0.9863918

 Al 
  0.9987389  0.5108237  0.0065467

 Al 
  0.9890847  0.7551470  0.2429434

 Al 
  0.2604772  0.4913098  0.2681501

 Al 
  0.2593993  0.7412752  0.0027288

 Al 
  0.0008366  0.0089364  0.5001856

 Al 
  0.0160450  0.2508143  0.7486275

 Al 
  0.2524838  0.0132531  0.7505470

 Al 
  0.2527264  0.2504505  0.5070974

 Al 
  0.9961215  0.4912653  0.4845490

 Al 
  0.9982464  0.7284850  0.7386355

 Al 
  0.2526162  0.4978070  0.7497389

 Al 
  0.2643532  0.7391973  0.5036632

 Al 
  0.4947292  0.4868806  0.0201958

 Al 
  0.4926526  0.7747327  0.2511757

 Al 
  0.7561866  0.5065034  0.2533872

 Al 
  0.7324526  0.7480645  0.9910673

 Al 
  0.4991300  0.0118311  0.4891726

 Al 
  0.5077137  0.2553215  0.7499579

 Al 
  0.7441043  0.9973331  0.7537300

 Al 
  0.7512982  0.2479110  0.4927281

 Al 
  0.5254690  0.4994258  0.5051569

 Al 
  0.5097631  0.7608584  0.7511955

 Al 
  0.7562485  0.4927702  0.7594389

 Al 
  0.7503601  0.7631602  0.5071073

