32 
charge = 0 
 Al 
  0.0008428  0.9783996  0.9951785

 Al 
  0.0016893  0.2317868  0.2537412

 Al 
  0.2514554  0.0224791  0.2434013

 Al 
  0.2123298  0.2416712  0.0061433

 Al 
  0.4843956  0.0118484  0.9791718

 Al 
  0.5023180  0.2682120  0.2610675

 Al 
  0.7522957  0.9900995  0.2485681

 Al 
  0.7299428  0.2318252  0.9792461

 Al 
  0.9995570  0.5097644  0.0074019

 Al 
  0.9953530  0.7476932  0.2440919

 Al 
  0.2639300  0.4958084  0.2689335

 Al 
  0.2623001  0.7425202  0.0042288

 Al 
  0.0011930  0.0114140  0.4971487

 Al 
  0.0161675  0.2460212  0.7437342

 Al 
  0.2557695  0.0227328  0.7540926

 Al 
  0.2536892  0.2541087  0.5056470

 Al 
  0.9991151  0.4853572  0.4893582

 Al 
  0.9986820  0.7344636  0.7356282

 Al 
  0.2496423  0.4975199  0.7457156

 Al 
  0.2602730  0.7427862  0.5006831

 Al 
  0.4917591  0.4811098  0.0172467

 Al 
  0.4920932  0.7715546  0.2511225

 Al 
  0.7501596  0.5052931  0.2572583

 Al 
  0.7284454  0.7521818  0.9951574

 Al 
  0.5002277  0.0084142  0.4969098

 Al 
  0.5092434  0.2589043  0.7491300

 Al 
  0.7495223  0.9931192  0.7501658

 Al 
  0.7508663  0.2486968  0.4942132

 Al 
  0.5186525  0.4962762  0.5097805

 Al 
  0.5095664  0.7604859  0.7502005

 Al 
  0.7555406  0.4945324  0.7589996

 Al 
  0.7529813  0.7629202  0.5066358

