32 
charge = 0 
 Al 
  0.9997537  0.9787882  0.9952676

 Al 
  0.0028204  0.2323821  0.2539825

 Al 
  0.2512400  0.0222303  0.2438506

 Al 
  0.2120526  0.2407146  0.0064774

 Al 
  0.4849772  0.0122692  0.9790283

 Al 
  0.5026014  0.2675202  0.2609710

 Al 
  0.7518947  0.9906935  0.2473293

 Al 
  0.7300245  0.2315009  0.9801965

 Al 
  0.9994258  0.5101257  0.0073016

 Al 
  0.9940956  0.7490075  0.2437082

 Al 
  0.2634956  0.4949062  0.2689298

 Al 
  0.2618818  0.7422504  0.0040481

 Al 
  0.0010631  0.0111826  0.4976103

 Al 
  0.0165177  0.2468207  0.7445659

 Al 
  0.2552646  0.0213579  0.7536273

 Al 
  0.2534602  0.2534875  0.5059712

 Al 
  0.9985483  0.4862903  0.4883880

 Al 
  0.9984889  0.7332385  0.7360774

 Al 
  0.2500792  0.4975298  0.7463059

 Al 
  0.2611084  0.7419905  0.5011608

 Al 
  0.4922430  0.4819761  0.0180437

 Al 
  0.4920982  0.7722786  0.2511274

 Al 
  0.7512871  0.5055319  0.2566717

 Al 
  0.7290530  0.7515284  0.9942998

 Al 
  0.5000285  0.0090565  0.4954742

 Al 
  0.5091530  0.2582620  0.7493936

 Al 
  0.7484048  0.9937392  0.7509207

 Al 
  0.7508985  0.2486313  0.4938704

 Al 
  0.5199903  0.4966536  0.5089414

 Al 
  0.5098411  0.7607284  0.7504765

 Al 
  0.7556804  0.4942218  0.7591010

 Al 
  0.7525259  0.7631045  0.5068808

