32 
charge = 0 
 Al 
  0.0003020  0.9785914  0.9952292

 Al 
  0.0022697  0.2320702  0.2538661

 Al 
  0.2513415  0.0223702  0.2436179

 Al 
  0.2121727  0.2411787  0.0063165

 Al 
  0.4846827  0.0120625  0.9790815

 Al 
  0.5024553  0.2678840  0.2610217

 Al 
  0.7521001  0.9903891  0.2479481

 Al 
  0.7299614  0.2316531  0.9797040

 Al 
  0.9994926  0.5099537  0.0073548

 Al 
  0.9947156  0.7483516  0.2438902

 Al 
  0.2637233  0.4953505  0.2689397

 Al 
  0.2620959  0.7423828  0.0041434

 Al 
  0.0011237  0.0113113  0.4973751

 Al 
  0.0163643  0.2464185  0.7441476

 Al 
  0.2555208  0.0220620  0.7538699

 Al 
  0.2535704  0.2538006  0.5058141

 Al 
  0.9988293  0.4858175  0.4888669

 Al 
  0.9985780  0.7338411  0.7358472

 Al 
  0.2498564  0.4975224  0.7460039

 Al 
  0.2606975  0.7423791  0.5009195

 Al 
  0.4919992  0.4815343  0.0176613

 Al 
  0.4920907  0.7719247  0.2511237

 Al 
  0.7507264  0.5054131  0.2569687

 Al 
  0.7287449  0.7518588  0.9947218

 Al 
  0.5001287  0.0087372  0.4961883

 Al 
  0.5092087  0.2585825  0.7492698

 Al 
  0.7489555  0.9934224  0.7505495

 Al 
  0.7508811  0.2486684  0.4940374

 Al 
  0.5193295  0.4964544  0.5093597

 Al 
  0.5097173  0.7606170  0.7503440

 Al 
  0.7556111  0.4943765  0.7590515

 Al 
  0.7527548  0.7630216  0.5067682

