32 
charge = 0 
 Al 
  0.9986300  0.9792028  0.9953084

 Al 
  0.0038389  0.2330924  0.2541966

 Al 
  0.2510680  0.0218516  0.2443691

 Al 
  0.2119289  0.2398730  0.0067620

 Al 
  0.4855836  0.0126590  0.9790320

 Al 
  0.5029194  0.2666823  0.2608509

 Al 
  0.7514603  0.9913544  0.2460868

 Al 
  0.7302757  0.2312571  0.9812930

 Al 
  0.9992872  0.5104116  0.0071766

 Al 
  0.9929013  0.7503267  0.2434038

 Al 
  0.2629783  0.4940510  0.2688666

 Al 
  0.2614215  0.7419992  0.0038265

 Al 
  0.0009665  0.0108559  0.4981090

 Al 
  0.0167021  0.2476449  0.7454161

 Al 
  0.2547250  0.0198456  0.7530803

 Al 
  0.2532585  0.2528501  0.5062633

 Al 
  0.9979951  0.4872741  0.4874635

 Al 
  0.9983491  0.7320826  0.7365638

 Al 
  0.2505544  0.4975620  0.7469506

 Al 
  0.2618955  0.7412678  0.5016633

 Al 
  0.4927429  0.4829167  0.0187157

 Al 
  0.4921440  0.7729370  0.2511386

 Al 
  0.7523934  0.5057633  0.2560455

 Al 
  0.7297077  0.7508403  0.9935016

 Al 
  0.4998292  0.0096839  0.4940609

 Al 
  0.5089785  0.2576172  0.7496040

 Al 
  0.7473541  0.9944174  0.7516274

 Al 
  0.7509467  0.2485335  0.4935610

 Al 
  0.5212725  0.4971165  0.5081122

 Al 
  0.5100082  0.7608930  0.7507079

 Al 
  0.7558178  0.4939174  0.7591914

 Al 
  0.7520655  0.7632196  0.5070541

