32 
charge = 0 
 Al 
  0.9974630  0.9796508  0.9952973

 Al 
  0.0047522  0.2339216  0.2543896

 Al 
  0.2509356  0.0213381  0.2449569

 Al 
  0.2119586  0.2391342  0.0069935

 Al 
  0.4862123  0.0130154  0.9791830

 Al 
  0.5032734  0.2656960  0.2607012

 Al 
  0.7509851  0.9920920  0.2448295

 Al 
  0.7307027  0.2311024  0.9825417

 Al 
  0.9991399  0.5106245  0.0070256

 Al 
  0.9917591  0.7516620  0.2431761

 Al 
  0.2623744  0.4932355  0.2687429

 Al 
  0.2609141  0.7417653  0.0035654

 Al 
  0.0008997  0.0104327  0.4986461

 Al 
  0.0167219  0.2485013  0.7462923

 Al 
  0.2541471  0.0181798  0.7524528

 Al 
  0.2530815  0.2521930  0.5065281

 Al 
  0.9974519  0.4883186  0.4865811

 Al 
  0.9982587  0.7309861  0.7370947

 Al 
  0.2510754  0.4976140  0.7476573

 Al 
  0.2626417  0.7406094  0.5021942

 Al 
  0.4932689  0.4839364  0.0192738

 Al 
  0.4922331  0.7735323  0.2511522

 Al 
  0.7534850  0.5059861  0.2553685

 Al 
  0.7304131  0.7501101  0.9927528

 Al 
  0.4996287  0.0103039  0.4926588

 Al 
  0.5087211  0.2569700  0.7497624

 Al 
  0.7463603  0.9951599  0.7522870

 Al 
  0.7510136  0.2484023  0.4932837

 Al 
  0.5225100  0.4976660  0.5072843

 Al 
  0.5100713  0.7609809  0.7508960

 Al 
  0.7559514  0.4936080  0.7592731

 Al 
  0.7515952  0.7632729  0.5071568

