32 
charge = 0 
 Al 
  0.9968603  0.9798896  0.9952725

 Al 
  0.0051693  0.2343820  0.2544787

 Al 
  0.2508824  0.0210287  0.2452787

 Al 
  0.2120353  0.2388013  0.0070900

 Al 
  0.4865353  0.0131813  0.9793154

 Al 
  0.5034652  0.2651478  0.2606146

 Al 
  0.7507326  0.9924917  0.2441921

 Al 
  0.7309824  0.2310603  0.9832273

 Al 
  0.9990632  0.5107037  0.0069415

 Al 
  0.9912046  0.7523402  0.2430907

 Al 
  0.2620402  0.4928382  0.2686575

 Al 
  0.2606418  0.7416564  0.0034194

 Al 
  0.0008762  0.0101839  0.4989320

 Al 
  0.0166700  0.2489431  0.7467415

 Al 
  0.2538402  0.0172850  0.7521100

 Al 
  0.2530011  0.2518551  0.5066519

 Al 
  0.9971821  0.4888681  0.4861554

 Al 
  0.9982328  0.7304589  0.7373781

 Al 
  0.2513539  0.4976462  0.7480372

 Al 
  0.2630006  0.7403012  0.5024714

 Al 
  0.4935424  0.4844785  0.0195102

 Al 
  0.4922937  0.7738070  0.2511596

 Al 
  0.7540283  0.5060950  0.2550072

 Al 
  0.7307893  0.7497277  0.9923964

 Al 
  0.4995285  0.0106109  0.4919608

 Al 
  0.5085615  0.2566432  0.7498230

 Al 
  0.7458839  0.9955572  0.7525989

 Al 
  0.7510556  0.2483231  0.4931563

 Al 
  0.5231152  0.4979729  0.5068660

 Al 
  0.5100626  0.7609957  0.7509752

 Al 
  0.7560158  0.4934496  0.7593102

 Al 
  0.7513551  0.7632778  0.5071816

