32 
charge = 0 
 Al 
  0.0070615  0.9764269  0.9937887

 Al 
  0.9922194  0.2305591  0.2512796

 Al 
  0.2538179  0.0213084  0.2421044

 Al 
  0.2172702  0.2503230  0.0031063

 Al 
  0.4816866  0.0086642  0.9832979

 Al 
  0.5012376  0.2691104  0.2612705

 Al 
  0.7540765  0.9876924  0.2563264

 Al 
  0.7331011  0.2352495  0.9763786

 Al 
  0.0000817  0.5059688  0.0073635

 Al 
  0.0047560  0.7393458  0.2482847

 Al 
  0.2647951  0.5027412  0.2676340

 Al 
  0.2641515  0.7444854  0.0044738

 Al 
  0.0030543  0.0106294  0.4949495

 Al 
  0.0103324  0.2415314  0.7389647

 Al 
  0.2583214  0.0284615  0.7549243

 Al 
  0.2557844  0.2574736  0.5027028

 Al 
  0.0028996  0.4805517  0.4964544

 Al 
  0.0011546  0.7437157  0.7335986

 Al 
  0.2475162  0.4981078  0.7431402

 Al 
  0.2538897  0.7496980  0.4982055

 Al 
  0.4889238  0.4773192  0.0094042

 Al 
  0.4929100  0.7656267  0.2514838

 Al 
  0.7426155  0.5037288  0.2603287

 Al 
  0.7255804  0.7556470  0.0018613

 Al 
  0.5013663  0.0040320  0.5064069

 Al 
  0.5079093  0.2626368  0.7462675

 Al 
  0.7578820  0.9903829  0.7444829

 Al 
  0.7507289  0.2484939  0.4971660

 Al 
  0.5088597  0.4959482  0.5153210

 Al 
  0.5055381  0.7572583  0.7474853

 Al 
  0.7547188  0.4969927  0.7580107

 Al 
  0.7557609  0.7598881  0.5035320

