32 
charge = 0 
 Al 
  0.0029578  0.9776806  0.9948666

 Al 
  0.9990557  0.2309267  0.2531434

 Al 
  0.2520321  0.0225954  0.2426971

 Al 
  0.2133409  0.2439768  0.0053203

 Al 
  0.4833201  0.0109042  0.9799131

 Al 
  0.5018452  0.2691513  0.2612024

 Al 
  0.7530048  0.9890884  0.2510742

 Al 
  0.7302906  0.2327038  0.9777536

 Al 
  0.9997909  0.5088139  0.0075207

 Al 
  0.9981053  0.7450238  0.2451153

 Al 
  0.2645525  0.4978009  0.2687590

 Al 
  0.2630377  0.7431105  0.0044763

 Al 
  0.0015791  0.0115836  0.4963145

 Al 
  0.0149510  0.2444755  0.7421031

 Al 
  0.2567039  0.0251126  0.7547646

 Al 
  0.2542473  0.2553054  0.5048760

 Al 
  0.0002995  0.4836134  0.4914695

 Al 
  0.9992389  0.7371628  0.7348300

 Al 
  0.2488577  0.4975793  0.7446797

 Al 
  0.2584253  0.7446451  0.4997884

 Al 
  0.4908173  0.4795765  0.0152418

 Al 
  0.4922071  0.7698951  0.2511497

 Al 
  0.7478070  0.5047943  0.2583449

 Al 
  0.7273464  0.7534120  0.9970818

 Al 
  0.5006188  0.0070690  0.4998886

 Al 
  0.5091654  0.2601864  0.7484246

 Al 
  0.7519838  0.9920289  0.7484902

 Al 
  0.7508267  0.2487377  0.4950163

 Al 
  0.5157554  0.4957787  0.5115205

 Al 
  0.5086840  0.7597545  0.7495000

 Al 
  0.7552572  0.4952057  0.7587545

 Al 
  0.7538921  0.7623100  0.5059180

