32 
charge = 0 
 Al 
  0.0060554  0.9767128  0.9941030

 Al 
  0.9941067  0.2304762  0.2518440

 Al 
  0.2532981  0.0218170  0.2421440

 Al 
  0.2160512  0.2485310  0.0037201

 Al 
  0.4820071  0.0092533  0.9822175

 Al 
  0.5013489  0.2693753  0.2612804

 Al 
  0.7538562  0.9879622  0.2549936

 Al 
  0.7321358  0.2345329  0.9765148

 Al 
  0.0000408  0.5067893  0.0074588

 Al 
  0.0029578  0.7408012  0.2473529

 Al 
  0.2648631  0.5013885  0.2680140

 Al 
  0.2639201  0.7441241  0.0045406

 Al 
  0.0025816  0.0110378  0.4952552

 Al 
  0.0117544  0.2422417  0.7397208

 Al 
  0.2579513  0.0278130  0.7550455

 Al 
  0.2553525  0.2569749  0.5033315

 Al 
  0.0022301  0.4812546  0.4951228

 Al 
  0.0005693  0.7419422  0.7338572

 Al 
  0.2478306  0.4979172  0.7434545

 Al 
  0.2551235  0.7482600  0.4985719

 Al 
  0.4893990  0.4777709  0.0110873

 Al 
  0.4926786  0.7668073  0.2513514

 Al 
  0.7439619  0.5039986  0.2598535

 Al 
  0.7259616  0.7551186  0.0005606

 Al 
  0.5011868  0.0048327  0.5047201

 Al 
  0.5083622  0.2620613  0.7468912

 Al 
  0.7563041  0.9907282  0.7455522

 Al 
  0.7507673  0.2485904  0.4965608

 Al 
  0.5107136  0.4957440  0.5143433

 Al 
  0.5064910  0.7580070  0.7480583

 Al 
  0.7548451  0.4964754  0.7582347

 Al 
  0.7552906  0.7606604  0.5042424

