32 
charge = 0 
 Al 
  0.0065616  0.9765668  0.9939483

 Al 
  0.9931748  0.2305022  0.2515705

 Al 
  0.2535530  0.0215781  0.2421143

 Al 
  0.2166415  0.2494134  0.0034169

 Al 
  0.4818375  0.0089600  0.9827397

 Al 
  0.5012895  0.2692639  0.2612779

 Al 
  0.7539713  0.9878199  0.2556606

 Al 
  0.7325974  0.2348856  0.9764281

 Al 
  0.0000644  0.5063871  0.0074155

 Al 
  0.0038476  0.7400735  0.2478083

 Al 
  0.2648396  0.5020568  0.2678320

 Al 
  0.2640401  0.7443035  0.0045134

 Al 
  0.0028093  0.0108485  0.4950993

 Al 
  0.0110638  0.2418841  0.7393384

 Al 
  0.2581407  0.0281533  0.7549985

 Al 
  0.2555653  0.2572298  0.5030246

 Al 
  0.0025642  0.4808957  0.4957836

 Al 
  0.0008539  0.7428209  0.7337236

 Al 
  0.2476721  0.4980075  0.7432899

 Al 
  0.2545122  0.7489654  0.4983850

 Al 
  0.4891614  0.4775345  0.0102619

 Al 
  0.4927900  0.7662257  0.2514133

 Al 
  0.7432912  0.5038637  0.2600936

 Al 
  0.7257648  0.7553859  0.0012041

 Al 
  0.5012784  0.0044354  0.5055616

 Al 
  0.5081469  0.2623546  0.7465843

 Al 
  0.7570875  0.9905487  0.7450213

 Al 
  0.7507500  0.2485446  0.4968578

 Al 
  0.5097953  0.4958319  0.5148322

 Al 
  0.5060269  0.7576419  0.7477773

 Al 
  0.7547807  0.4967279  0.7581258

 Al 
  0.7555270  0.7602879  0.5038958

