32 
charge = 0 
 Al 
  0.0112692  0.9755631  0.9922355

 Al 
  0.9826630  0.2325726  0.2476994

 Al 
  0.2565764  0.0175066  0.2429583

 Al 
  0.2247921  0.2596938  0.0000408

 Al 
  0.4813635  0.0061148  0.9900191

 Al 
  0.5009826  0.2655401  0.2608633

 Al 
  0.7545245  0.9872469  0.2622432

 Al 
  0.7396057  0.2388867  0.9776546

 Al 
  0.9997277  0.5015593  0.0063648

 Al 
  0.0136392  0.7327348  0.2535035

 Al 
  0.2634102  0.5095441  0.2650389

 Al 
  0.2646936  0.7461685  0.0034726

 Al 
  0.0063140  0.0072843  0.4937726

 Al 
  0.0019318  0.2387382  0.7361653

 Al 
  0.2595725  0.0294874  0.7528699

 Al 
  0.2579167  0.2590664  0.4990508

 Al 
  0.0058438  0.4781892  0.5029083

 Al 
  0.0048166  0.7525457  0.7329588

 Al 
  0.2461165  0.4995916  0.7424608

 Al 
  0.2477724  0.7577051  0.4969457

 Al 
  0.4868756  0.4765197  0.0002054

 Al 
  0.4943382  0.7594525  0.2527845

 Al 
  0.7364165  0.5025073  0.2622271

 Al 
  0.7246176  0.7576395  0.0083201

 Al 
  0.5020915  0.0001027  0.5141330

 Al 
  0.5047819  0.2644287  0.7430016

 Al 
  0.7653544  0.9893768  0.7394287

 Al 
  0.7501992  0.2478875  0.5004579

 Al 
  0.4997116  0.4985285  0.5195139

 Al 
  0.5000074  0.7529664  0.7445312

 Al 
  0.7542943  0.5001386  0.7565789

 Al 
  0.7577768  0.7547164  0.4995904

