32 
charge = 0 
 Al 
  0.0121219  0.9755532  0.9919125

 Al 
  0.9802720  0.2335417  0.2465286

 Al 
  0.2572818  0.0162232  0.2434743

 Al 
  0.2271274  0.2620935  0.9992909

 Al 
  0.4817002  0.0056458  0.9920623

 Al 
  0.5009529  0.2639956  0.2606195

 Al 
  0.7544280  0.9873843  0.2635340

 Al 
  0.7417034  0.2397975  0.9785110

 Al 
  0.9994196  0.5003985  0.0059490

 Al 
  0.0157863  0.7312571  0.2549428

 Al 
  0.2628174  0.5112037  0.2641738

 Al 
  0.2646391  0.7465472  0.0030060

 Al 
  0.0074452  0.0061012  0.4935152

 Al 
  0.9995087  0.2382518  0.7357841

 Al 
  0.2597136  0.0291174  0.7519665

 Al 
  0.2584068  0.2591815  0.4979444

 Al 
  0.0064279  0.4779553  0.5044651

 Al 
  0.0059960  0.7547349  0.7329947

 Al 
  0.2457403  0.5001448  0.7425449

 Al 
  0.2463071  0.7599970  0.4968170

 Al 
  0.4864858  0.4767660  0.9977018

 Al 
  0.4947589  0.7578016  0.2533711

 Al 
  0.7350057  0.5022140  0.2625674

 Al 
  0.7246782  0.7579464  0.0099042

 Al 
  0.5022449  0.9991003  0.5158643

 Al 
  0.5037808  0.2644832  0.7421848

 Al 
  0.7670400  0.9892901  0.7382667

 Al 
  0.7499146  0.2477402  0.5013799

 Al 
  0.4974395  0.4996659  0.5202787

 Al 
  0.4984159  0.7517561  0.7438085

 Al 
  0.7542498  0.5011497  0.7560950

 Al 
  0.7581914  0.7529590  0.4985397

