32 
charge = 0 
 Al 
  0.0118608  0.9755421  0.9920091

 Al 
  0.9810331  0.2332063  0.2469185

 Al 
  0.2570578  0.0166502  0.2432936

 Al 
  0.2263551  0.2613286  0.9995285

 Al 
  0.4815677  0.0057844  0.9913915

 Al 
  0.5009628  0.2645240  0.2607062

 Al 
  0.7544713  0.9873261  0.2631318

 Al 
  0.7410091  0.2395067  0.9782090

 Al 
  0.9995322  0.5007698  0.0060913

 Al 
  0.0151094  0.7317175  0.2544787

 Al 
  0.2630167  0.5106814  0.2644622

 Al 
  0.2646676  0.7464296  0.0031669

 Al 
  0.0070665  0.0064960  0.4935981

 Al 
  0.0002958  0.2383954  0.7358868

 Al 
  0.2596777  0.0292696  0.7522746

 Al 
  0.2582545  0.2591617  0.4983095

 Al 
  0.0062522  0.4780085  0.5039726

 Al 
  0.0056037  0.7540394  0.7329724

 Al 
  0.2458653  0.4999567  0.7425041

 Al 
  0.2467675  0.7592495  0.4968455

 Al 
  0.4866009  0.4766608  0.9985087

 Al 
  0.4946216  0.7583337  0.2531669

 Al 
  0.7354475  0.5023081  0.2624672

 Al 
  0.7246411  0.7578598  0.0094018

 Al 
  0.5021967  0.9994221  0.5153235

 Al 
  0.5041112  0.2644919  0.7424434

 Al 
  0.7665165  0.9893099  0.7386305

 Al 
  0.7500161  0.2477860  0.5010804

 Al 
  0.4981635  0.4992748  0.5200547

 Al 
  0.4989345  0.7521484  0.7440362

 Al 
  0.7542609  0.5008118  0.7562584

 Al 
  0.7580640  0.7535481  0.4988751

