32 
charge = 0 
 Al 
  0.0139510  0.9781632  0.9921167

 Al 
  0.9718714  0.2410252  0.2398594

 Al 
  0.2595874  0.0090132  0.2478046

 Al 
  0.2401193  0.2704322  0.9967254

 Al 
  0.4868818  0.0058264  0.0024281

 Al 
  0.5004715  0.2529541  0.2578325

 Al 
  0.7520296  0.9898829  0.2671848

 Al 
  0.7529305  0.2432107  0.9858955

 Al 
  0.9957193  0.4962230  0.0029565

 Al 
  0.0215707  0.7275048  0.2605911

 Al 
  0.2597594  0.5154027  0.2587879

 Al 
  0.2626986  0.7475546  0.9993330

 Al 
  0.0140018  0.0001101  0.4919484

 Al 
  0.9890562  0.2381343  0.7373793

 Al 
  0.2588077  0.0228603  0.7460844

 Al 
  0.2594080  0.2571989  0.4919657

 Al 
  0.0068351  0.4805492  0.5096084

 Al 
  0.0128521  0.7621875  0.7351010

 Al 
  0.2432639  0.5038760  0.7447453

 Al 
  0.2428271  0.7706487  0.4983503

 Al 
  0.4870105  0.4822162  0.9872482

 Al 
  0.4967192  0.7506423  0.2583733

 Al 
  0.7307856  0.5005680  0.2623484

 Al 
  0.7279417  0.7571581  0.0151960

 Al 
  0.5031100  0.9948827  0.5204359

 Al 
  0.4983961  0.2605898  0.7395661

 Al 
  0.7706685  0.9895748  0.7349921

 Al 
  0.7471227  0.2477155  0.5055987

 Al 
  0.4886714  0.5079179  0.5194384

 Al 
  0.4911292  0.7466957  0.7421724

 Al 
  0.7545468  0.5074873  0.7529541

 Al 
  0.7592582  0.7417925  0.4949792

