32 
charge = 0 
 Al 
  0.0135092  0.9761596  0.9915474

 Al 
  0.9753849  0.2365811  0.2434446

 Al 
  0.2586976  0.0129065  0.2452020

 Al 
  0.2330899  0.2669905  0.9977922

 Al 
  0.4834117  0.0051693  0.9970447

 Al 
  0.5008255  0.2593708  0.2596716

 Al 
  0.7537003  0.9882085  0.2658717

 Al 
  0.7470336  0.2416823  0.9814254

 Al 
  0.9981313  0.4979803  0.0047015

 Al 
  0.0197985  0.7286137  0.2580751

 Al 
  0.2612730  0.5142654  0.2618385

 Al 
  0.2640748  0.7472155  0.0015210

 Al 
  0.0104896  0.0030914  0.4928877

 Al 
  0.9939892  0.2376986  0.7357866

 Al 
  0.2596282  0.0270185  0.7493552

 Al 
  0.2592471  0.2587731  0.4951574

 Al 
  0.0071816  0.4783612  0.5075380

 Al 
  0.0091072  0.7591258  0.7335553

 Al 
  0.2447292  0.5017499  0.7432528

 Al 
  0.2436624  0.7653866  0.4970521

 Al 
  0.4860972  0.4784033  0.9921724

 Al 
  0.4957391  0.7541099  0.2553240

 Al 
  0.7323697  0.5015247  0.2629263

 Al 
  0.7255680  0.7580998  0.0130489

 Al 
  0.5025952  0.9969073  0.5189743

 Al 
  0.5012598  0.2635352  0.7405859

 Al 
  0.7699149  0.9893483  0.7361269

 Al 
  0.7488850  0.2475410  0.5035147

 Al 
  0.4927021  0.5031459  0.5209668

 Al 
  0.4947168  0.7490434  0.7425041

 Al 
  0.7543055  0.5038897  0.7547473

 Al 
  0.7588832  0.7481041  0.4963863

