32 
charge = 0 
 Al 
  0.0139486  0.9778526  0.9919917

 Al 
  0.9721734  0.2404522  0.2402728

 Al 
  0.2595230  0.0094797  0.2474717

 Al 
  0.2392753  0.2701389  0.9968195

 Al 
  0.4863942  0.0056928  0.0018056

 Al 
  0.5005247  0.2537659  0.2580949

 Al 
  0.7522672  0.9896527  0.2670883

 Al 
  0.7522586  0.2430573  0.9853176

 Al 
  0.9960485  0.4963739  0.0031793

 Al 
  0.0215163  0.7275370  0.2603534

 Al 
  0.2599178  0.5154015  0.2591741

 Al 
  0.2628991  0.7475298  0.9996126

 Al 
  0.0136033  0.0004183  0.4920784

 Al 
  0.9895562  0.2380315  0.7371170

 Al 
  0.2589414  0.0234308  0.7464729

 Al 
  0.2594352  0.2574365  0.4923420

 Al 
  0.0069316  0.4802052  0.5094352

 Al 
  0.0124066  0.7619214  0.7348671

 Al 
  0.2434595  0.5036149  0.7445423

 Al 
  0.2428011  0.7700869  0.4981449

 Al 
  0.4868175  0.4816581  0.9877617

 Al 
  0.4966091  0.7510173  0.2579761

 Al 
  0.7309094  0.5007017  0.2624722

 Al 
  0.7275890  0.7573264  0.0150129

 Al 
  0.5030345  0.9950993  0.5203666

 Al 
  0.4987340  0.2610254  0.7396478

 Al 
  0.7707094  0.9895537  0.7350639

 Al 
  0.7473628  0.2476697  0.5053710

 Al 
  0.4890921  0.5073288  0.5197379

 Al 
  0.4915165  0.7469296  0.7421415

 Al 
  0.7545171  0.5070355  0.7531781

 Al 
  0.7592260  0.7425734  0.4950869

