32 
charge = 0 
 Al 
  0.0137976  0.9801359  0.9930239

 Al 
  0.9707403  0.2442812  0.2377630

 Al 
  0.2597607  0.0064737  0.2496535

 Al 
  0.2446958  0.2715682  0.9963393

 Al 
  0.4898000  0.0067163  0.0057076

 Al 
  0.5001497  0.2484196  0.2562472

 Al 
  0.7506064  0.9912207  0.2675090

 Al 
  0.7563648  0.2439347  0.9891379

 Al 
  0.9938221  0.4956524  0.0016893

 Al 
  0.0212378  0.7277239  0.2616257

 Al 
  0.2589872  0.5148817  0.2565962

 Al 
  0.2614871  0.7476561  0.9977711

 Al 
  0.0159856  0.9987018  0.4911688

 Al 
  0.9867185  0.2388879  0.7390389

 Al 
  0.2579513  0.0195399  0.7440448

 Al 
  0.2590676  0.2557460  0.4899460

 Al 
  0.0061222  0.4827075  0.5102705

 Al 
  0.0152171  0.7632568  0.7365823

 Al 
  0.2421180  0.5052881  0.7459061

 Al 
  0.2434731  0.7733429  0.4996349

 Al 
  0.4884251  0.4856628  0.9847310

 Al 
  0.4973021  0.7487501  0.2606109

 Al 
  0.7303203  0.4997401  0.2614475

 Al 
  0.7301235  0.7560319  0.0159212

 Al 
  0.5035914  0.9938072  0.5204049

 Al 
  0.4965979  0.2579674  0.7392740

 Al 
  0.7699507  0.9896107  0.7348423

 Al 
  0.7457057  0.2480645  0.5067422

 Al 
  0.4865762  0.5110997  0.5173692

 Al 
  0.4892196  0.7456091  0.7426600

 Al 
  0.7546767  0.5100131  0.7517029

 Al 
  0.7594104  0.7375080  0.4946389

