32 
charge = 0 
 Al 
  0.0135761  0.9816791  0.9938184

 Al 
  0.9704284  0.2465522  0.2365477

 Al 
  0.2597371  0.0047795  0.2508886

 Al 
  0.2477254  0.2719531  0.9961747

 Al 
  0.4919484  0.0074068  0.0077991

 Al 
  0.4999171  0.2453294  0.2550740

 Al 
  0.7495730  0.9921662  0.2675808

 Al 
  0.7584216  0.2443320  0.9913383

 Al 
  0.9925016  0.4954916  0.0007920

 Al 
  0.0205138  0.7281781  0.2621034

 Al 
  0.2585404  0.5141119  0.2550567

 Al 
  0.2605812  0.7477142  0.9967180

 Al 
  0.0171006  0.9980137  0.4905871

 Al 
  0.9854859  0.2395389  0.7403074

 Al 
  0.2572831  0.0171885  0.7427862

 Al 
  0.2586803  0.2546594  0.4886318

 Al 
  0.0055195  0.4843609  0.5104834

 Al 
  0.0167108  0.7636788  0.7377481

 Al 
  0.2412913  0.5062027  0.7467118

 Al 
  0.2443159  0.7747909  0.5006039

 Al 
  0.4896787  0.4882902  0.9832719

 Al 
  0.4976820  0.7476028  0.2621306

 Al 
  0.7301569  0.4990854  0.2606641

 Al 
  0.7317868  0.7551260  0.0161960

 Al 
  0.5039850  0.9931798  0.5200584

 Al 
  0.4954309  0.2560504  0.7391998

 Al 
  0.7690931  0.9895550  0.7349327

 Al 
  0.7446772  0.2483936  0.5074204

 Al 
  0.4853176  0.5131516  0.5156576

 Al 
  0.4881244  0.7450398  0.7432565

 Al 
  0.7547164  0.5117358  0.7508552

 Al 
  0.7595057  0.7346579  0.4946055

