32 
charge = 0 
 Al 
  0.0138916  0.9792585  0.9926006

 Al 
  0.9711116  0.2428976  0.2386033

 Al 
  0.2597223  0.0075330  0.2488775

 Al 
  0.2427900  0.2711834  0.9964767

 Al 
  0.4885327  0.0063165  0.0043599

 Al 
  0.5002896  0.2503317  0.2569378

 Al 
  0.7512227  0.9906477  0.2674100

 Al 
  0.7549800  0.2436525  0.9877704

 Al 
  0.9946315  0.4958393  0.0022301

 Al 
  0.0214965  0.7275580  0.2612445

 Al 
  0.2592916  0.5152010  0.2575281

 Al 
  0.2620167  0.7476189  0.9984283

 Al 
  0.0151997  0.9992339  0.4915091

 Al 
  0.9876182  0.2385377  0.7383050

 Al 
  0.2583337  0.0209631  0.7448765

 Al 
  0.2592471  0.2563821  0.4907814

 Al 
  0.0064527  0.4817546  0.5100490

 Al 
  0.0142456  0.7628806  0.7359240

 Al 
  0.2426105  0.5047027  0.7454124

 Al 
  0.2431055  0.7722947  0.4990681

 Al 
  0.4877630  0.4841468  0.9857272

 Al 
  0.4970620  0.7495124  0.2596666

 Al 
  0.7304762  0.5001089  0.2618657

 Al 
  0.7291632  0.7565405  0.0156700

 Al 
  0.5033748  0.9942354  0.5204965

 Al 
  0.4973405  0.2591060  0.7393681

 Al 
  0.7703431  0.9896119  0.7348597

 Al 
  0.7463170  0.2478974  0.5062843

 Al 
  0.4874152  0.5097817  0.5183134

 Al 
  0.4899770  0.7460249  0.7423939

 Al 
  0.7546310  0.5089476  0.7522289

 Al 
  0.7593498  0.7392988  0.4947342

