32 
charge = 0 
 Al 
  0.0134832  0.9822521  0.9941253

 Al 
  0.9704000  0.2473529  0.2361678

 Al 
  0.2597062  0.0041904  0.2513118

 Al 
  0.2487699  0.2720261  0.9961314

 Al 
  0.4927244  0.0076543  0.0085033

 Al 
  0.4998342  0.2442540  0.2546520

 Al 
  0.7492055  0.9925004  0.2675845

 Al 
  0.7590862  0.2444557  0.9920994

 Al 
  0.9920412  0.4954742  0.0004703

 Al 
  0.0201822  0.7283860  0.2622333

 Al 
  0.2583944  0.5137778  0.2545097

 Al 
  0.2602532  0.7477365  0.9963554

 Al 
  0.0174422  0.9978231  0.4903755

 Al 
  0.9851134  0.2397876  0.7407703

 Al 
  0.2570368  0.0163581  0.7423741

 Al 
  0.2585181  0.2542671  0.4881813

 Al 
  0.0052918  0.4849649  0.5105193

 Al 
  0.0172083  0.7637803  0.7381838

 Al 
  0.2409967  0.5065108  0.7469940

 Al 
  0.2446735  0.7752240  0.5009529

 Al 
  0.4901651  0.4892542  0.9828016

 Al 
  0.4978132  0.7472229  0.2626566

 Al 
  0.7301198  0.4988379  0.2603621

 Al 
  0.7323969  0.7547894  0.0162591

 Al 
  0.5041359  0.9929781  0.5198839

 Al 
  0.4950324  0.2553661  0.7391948

 Al 
  0.7687355  0.9895203  0.7349946

 Al 
  0.7443072  0.2485248  0.5076407

 Al 
  0.4848993  0.5138434  0.5150141

 Al 
  0.4877766  0.7448691  0.7435102

 Al 
  0.7547176  0.5123373  0.7505619

 Al 
  0.7595379  0.7336790  0.4946253

