32 
charge = 0 
 Al 
  0.0120390  0.9895030  0.9984035

 Al 
  0.9729209  0.2562064  0.2340280

 Al 
  0.2587050  0.9977848  0.2553042

 Al 
  0.2595800  0.2710027  0.9960138

 Al 
  0.5018774  0.0100280  0.0150463

 Al 
  0.4989815  0.2331667  0.2499802

 Al 
  0.7452935  0.9960547  0.2671180

 Al 
  0.7641627  0.2453096  0.9997290

 Al 
  0.9873187  0.4966140  0.9966908

 Al 
  0.0143632  0.7320232  0.2625650

 Al 
  0.2569303  0.5083090  0.2482748

 Al 
  0.2563722  0.7482451  0.9928568

 Al 
  0.0191859  0.9974283  0.4878595

 Al 
  0.9828783  0.2431501  0.7461475

 Al 
  0.2540963  0.0074365  0.7391602

 Al 
  0.2559205  0.2498057  0.4835973

 Al 
  0.0024974  0.4921180  0.5096604

 Al 
  0.0214779  0.7635662  0.7438085

 Al 
  0.2376974  0.5092520  0.7499319

 Al 
  0.2503626  0.7771608  0.5047535

 Al 
  0.4969803  0.5009814  0.9788996

 Al 
  0.4992141  0.7438122  0.2677640

 Al 
  0.7301866  0.4954817  0.2562744

 Al 
  0.7399485  0.7507264  0.0160425

 Al 
  0.5063041  0.9913185  0.5164027

 Al 
  0.4910772  0.2477563  0.7398037

 Al 
  0.7632394  0.9885921  0.7367024

 Al 
  0.7400475  0.2505854  0.5094364

 Al 
  0.4809490  0.5200386  0.5068734

 Al 
  0.4853473  0.7439718  0.7477043

 Al 
  0.7542003  0.5185795  0.7475521

 Al 
  0.7598460  0.7239889  0.4956116

