32 
charge = 0 
 Al 
  0.0127593  0.9861170  0.9963220

 Al 
  0.9711277  0.2523390  0.2344302

 Al 
  0.2592916  0.0005829  0.2537523

 Al 
  0.2550233  0.2718566  0.9959915

 Al 
  0.4977439  0.0091369  0.0125105

 Al 
  0.4993342  0.2377803  0.2519851

 Al 
  0.7469308  0.9945498  0.2674274

 Al 
  0.7625068  0.2450572  0.9966078

 Al 
  0.9892765  0.4958010  0.9984035

 Al 
  0.0173779  0.7301359  0.2626739

 Al 
  0.2575627  0.5110873  0.2510482

 Al 
  0.2581209  0.7479382  0.9942367

 Al 
  0.0189397  0.9971969  0.4889956

 Al 
  0.9834315  0.2415413  0.7437565

 Al 
  0.2554180  0.0112470  0.7402208

 Al 
  0.2572521  0.2517598  0.4855180

 Al 
  0.0037622  0.4889077  0.5103275

 Al 
  0.0199359  0.7639498  0.7411576

 Al 
  0.2391379  0.5082335  0.7487030

 Al 
  0.2475100  0.7770172  0.5031397

 Al 
  0.4936748  0.4956302  0.9803091

 Al 
  0.4986102  0.7451153  0.2657344

 Al 
  0.7300641  0.4971029  0.2582335

 Al 
  0.7364499  0.7525556  0.0163296

 Al 
  0.5052238  0.9919212  0.5182738

 Al 
  0.4927009  0.2510631  0.7393780

 Al 
  0.7659856  0.9891280  0.7357111

 Al 
  0.7419422  0.2495322  0.5088053

 Al 
  0.4825405  0.5177083  0.5106331

 Al 
  0.4860638  0.7441228  0.7455584

 Al 
  0.7545629  0.5159621  0.7487996

 Al 
  0.7597347  0.7279206  0.4950262

