32 
charge = 0 
 Al 
  0.0123323  0.9881602  0.9975608

 Al 
  0.9720831  0.2547263  0.2340602

 Al 
  0.2589587  0.9988627  0.2547584

 Al 
  0.2578684  0.2714098  0.9959915

 Al 
  0.5002661  0.0097334  0.0141515

 Al 
  0.4991114  0.2348733  0.2507289

 Al 
  0.7458962  0.9954928  0.2672553

 Al 
  0.7636528  0.2452379  0.9985842

 Al 
  0.9880427  0.4962353  0.9973615

 Al 
  0.0156094  0.7312423  0.2626590

 Al 
  0.2571791  0.5094488  0.2493490

 Al 
  0.2570529  0.7481041  0.9933456

 Al 
  0.0192082  0.9972563  0.4883001

 Al 
  0.9830058  0.2425053  0.7452292

 Al 
  0.2546062  0.0088721  0.7394881

 Al 
  0.2564725  0.2505482  0.4843176

 Al 
  0.0029850  0.4908767  0.5099760

 Al 
  0.0209643  0.7637691  0.7427528

 Al 
  0.2382456  0.5089055  0.7494765

 Al 
  0.2492030  0.7772598  0.5041520

 Al 
  0.4956487  0.4988911  0.9793797

 Al 
  0.4989840  0.7442701  0.2670388

 Al 
  0.7301235  0.4961363  0.2570603

 Al 
  0.7385624  0.7514306  0.0161873

 Al 
  0.5058599  0.9915264  0.5171885

 Al 
  0.4916774  0.2490137  0.7396070

 Al 
  0.7643594  0.9888260  0.7362692

 Al 
  0.7407777  0.2501473  0.5092273

 Al 
  0.4815356  0.5192354  0.5083461

 Al 
  0.4855453  0.7439755  0.7468207

 Al 
  0.7543698  0.5176056  0.7480125

 Al 
  0.7598114  0.7254220  0.4953629

