32 
charge = 0 
 Al 
  0.0121863  0.9888347  0.9979815

 Al 
  0.9724828  0.2554787  0.2340231

 Al 
  0.2588350  0.9983157  0.2550455

 Al 
  0.2587434  0.2712155  0.9960002

 Al 
  0.5010804  0.0098918  0.0146206

 Al 
  0.4990446  0.2339946  0.2503440

 Al 
  0.7455844  0.9957811  0.2671885

 Al 
  0.7639325  0.2452787  0.9991745

 Al 
  0.9876702  0.4964160  0.9970224

 Al 
  0.0149906  0.7316296  0.2626194

 Al 
  0.2570541  0.5088820  0.2488045

 Al 
  0.2567088  0.7481709  0.9930895

 Al 
  0.0192169  0.9973293  0.4880773

 Al 
  0.9829266  0.2428283  0.7456958

 Al 
  0.2543476  0.0081382  0.7393075

 Al 
  0.2561990  0.2501695  0.4839488

 Al 
  0.0027375  0.4915054  0.5098262

 Al 
  0.0212390  0.7636751  0.7432825

 Al 
  0.2379659  0.5090899  0.7497104

 Al 
  0.2497822  0.7772363  0.5044614

 Al 
  0.4963145  0.4999480  0.9791248

 Al 
  0.4991015  0.7440300  0.2674175

 Al 
  0.7301532  0.4958096  0.2566667

 Al 
  0.7392592  0.7510730  0.0161193

 Al 
  0.5060801  0.9914175  0.5168011

 Al 
  0.4913680  0.2483726  0.7397010

 Al 
  0.7638013  0.9887122  0.7364796

 Al 
  0.7404077  0.2503638  0.5093399

 Al 
  0.4812336  0.5196599  0.5076023

 Al 
  0.4854314  0.7439644  0.7472600

 Al 
  0.7542882  0.5181055  0.7477749

 Al 
  0.7598312  0.7246807  0.4954854

