32 
charge = 0 
 Al 
  0.0130266  0.9847706  0.9955349

 Al 
  0.9707069  0.2506769  0.2348807

 Al 
  0.2594711  0.0017796  0.2529813

 Al 
  0.2529838  0.2720274  0.9960163

 Al 
  0.4960348  0.0086654  0.0112519

 Al 
  0.4994975  0.2398891  0.2528749

 Al 
  0.7476808  0.9938753  0.2675115

 Al 
  0.7615093  0.2448889  0.9951549

 Al 
  0.9901750  0.4956091  0.9991077

 Al 
  0.0184471  0.7294688  0.2625959

 Al 
  0.2578313  0.5120959  0.2522140

 Al 
  0.2588473  0.7478541  0.9949111

 Al 
  0.0185684  0.9972972  0.4894671

 Al 
  0.9838758  0.2409188  0.7427442

 Al 
  0.2559712  0.0129350  0.7408544

 Al 
  0.2577249  0.2526038  0.4863819

 Al 
  0.0042906  0.4875625  0.5104698

 Al 
  0.0191030  0.7639770  0.7401144

 Al 
  0.2397604  0.5077001  0.7481437

 Al 
  0.2464556  0.7765989  0.5024145

 Al 
  0.4924150  0.4934360  0.9810603

 Al 
  0.4983479  0.7457700  0.2647505

 Al 
  0.7300530  0.4977216  0.2589909

 Al 
  0.7350478  0.7533229  0.0163631

 Al 
  0.5048290  0.9922368  0.5189087

 Al 
  0.4934508  0.2524999  0.7392740

 Al 
  0.7669992  0.9892926  0.7354091

 Al 
  0.7427429  0.2491572  0.5084563

 Al 
  0.4832867  0.5165091  0.5121591

 Al 
  0.4865465  0.7443097  0.7447874

 Al 
  0.7546483  0.5147777  0.7493726

 Al 
  0.7596716  0.7297696  0.4948443

