32 
charge = 0 
 Al 
  0.0105477  0.9957242  0.0026620

 Al 
  0.9792090  0.2621492  0.2363051

 Al 
  0.2571964  0.9931773  0.2564069

 Al 
  0.2659014  0.2680140  0.9962923

 Al 
  0.5088473  0.0099154  0.0169299

 Al 
  0.4985162  0.2277375  0.2476127

 Al 
  0.7436451  0.9979172  0.2662591

 Al 
  0.7638718  0.2451611  0.0033625

 Al 
  0.9849834  0.4994010  0.9937466

 Al 
  0.0078734  0.7361368  0.2612173

 Al 
  0.2556445  0.5025679  0.2436662

 Al 
  0.2534590  0.7493342  0.9918779

 Al 
  0.0168123  0.9995013  0.4861282

 Al 
  0.9838077  0.2462663  0.7497673

 Al 
  0.2520469  0.0022697  0.7393867

 Al 
  0.2529256  0.2470596  0.4810071

 Al 
  0.0006571  0.4971821  0.5073115

 Al 
  0.0217972  0.7618868  0.7487166

 Al 
  0.2356963  0.5096654  0.7513972

 Al 
  0.2558747  0.7738416  0.5067051

 Al 
  0.5033884  0.5098770  0.9781422

 Al 
  0.5001634  0.7428457  0.2693567

 Al 
  0.7307002  0.4922677  0.2524838

 Al 
  0.7464754  0.7480533  0.0149102

 Al 
  0.5086097  0.9908123  0.5120836

 Al 
  0.4890525  0.2429966  0.7412022

 Al 
  0.7575999  0.9871318  0.7395438

 Al 
  0.7371095  0.2529887  0.5096815

 Al 
  0.4789057  0.5213269  0.5006930

 Al 
  0.4860316  0.7450869  0.7521818

 Al 
  0.7529442  0.5218145  0.7461351

 Al 
  0.7597074  0.7198951  0.4968244

