32 
charge = 0 
 Al 
  0.0112977  0.9927070  0.0005198

 Al 
  0.9756448  0.2594575  0.2346827

 Al 
  0.2579934  0.9953480  0.2561891

 Al 
  0.2631689  0.2696884  0.9961264

 Al 
  0.5055727  0.0103237  0.0165227

 Al 
  0.4987166  0.2298191  0.2484988

 Al 
  0.7441723  0.9971796  0.2667195

 Al 
  0.7645711  0.2453307  0.0019516

 Al 
  0.9858918  0.4978318  0.9951376

 Al 
  0.0111566  0.7340466  0.2620650

 Al 
  0.2563140  0.5054279  0.2458331

 Al 
  0.2548203  0.7487067  0.9920536

 Al 
  0.0184521  0.9982439  0.4868868

 Al 
  0.9830466  0.2447305  0.7481560

 Al 
  0.2529689  0.0044527  0.7389053

 Al 
  0.2544688  0.2482340  0.4821024

 Al 
  0.0014430  0.4948802  0.5086369

 Al 
  0.0221041  0.7628422  0.7463393

 Al 
  0.2365366  0.5097347  0.7508304

 Al 
  0.2532127  0.7760544  0.5059465

 Al 
  0.5002488  0.5057534  0.9781917

 Al 
  0.4997253  0.7430610  0.2689941

 Al 
  0.7304057  0.4938592  0.2543537

 Al 
  0.7432726  0.7492005  0.0155463

 Al 
  0.5074464  0.9909683  0.5143112

 Al 
  0.4898755  0.2450708  0.7404237

 Al 
  0.7604178  0.9879177  0.7379796

 Al 
  0.7384313  0.2517425  0.5097136

 Al 
  0.4797634  0.5212465  0.5035233

 Al 
  0.4853547  0.7442948  0.7499505

 Al 
  0.7536533  0.5205324  0.7466623

 Al 
  0.7598510  0.7213133  0.4962465

