32 
charge = 0 
 Al 
  0.0107000  0.9951290  0.0022276

 Al 
  0.9784280  0.2616467  0.2359079

 Al 
  0.2573623  0.9935981  0.2564143

 Al 
  0.2654126  0.2683766  0.9962564

 Al 
  0.5082174  0.0100564  0.0169311

 Al 
  0.4985533  0.2280593  0.2477427

 Al 
  0.7437020  0.9977984  0.2663556

 Al 
  0.7640921  0.2452082  0.0031360

 Al 
  0.9851270  0.4990595  0.9940139

 Al 
  0.0085379  0.7357111  0.2614140

 Al 
  0.2557856  0.5031385  0.2440857

 Al 
  0.2537201  0.7491956  0.9918618

 Al 
  0.0172108  0.9992191  0.4862618

 Al 
  0.9836122  0.2459606  0.7494728

 Al 
  0.2522177  0.0026496  0.7392357

 Al 
  0.2532437  0.2472662  0.4811977

 Al 
  0.0007920  0.4967539  0.5076011

 Al 
  0.0219333  0.7620935  0.7482513

 Al 
  0.2358386  0.5097235  0.7513081

 Al 
  0.2553611  0.7743688  0.5065863

 Al 
  0.5027684  0.5090986  0.9781013

 Al 
  0.5000792  0.7428481  0.2693542

 Al 
  0.7306346  0.4925845  0.2528575

 Al 
  0.7458368  0.7482513  0.0150463

 Al 
  0.5083758  0.9908309  0.5125415

 Al 
  0.4891899  0.2433679  0.7410339

 Al 
  0.7581654  0.9872977  0.7392047

 Al 
  0.7373521  0.2527301  0.5097099

 Al 
  0.4790555  0.5213987  0.5012202

 Al 
  0.4858448  0.7448901  0.7517375

 Al 
  0.7530989  0.5216091  0.7462131

 Al 
  0.7597495  0.7200819  0.4967167

