32 
charge = 0 
 Al 
  0.0115947  0.9914534  0.9996720

 Al 
  0.9744530  0.2582323  0.2342990

 Al 
  0.2582892  0.9962811  0.2559180

 Al 
  0.2618484  0.2702601  0.9960732

 Al 
  0.5041520  0.0102866  0.0160636

 Al 
  0.4988132  0.2309997  0.2490199

 Al 
  0.7445510  0.9967786  0.2668865

 Al 
  0.7645500  0.2453480  0.0011695

 Al 
  0.9863967  0.4973009  0.9957378

 Al 
  0.0124486  0.7332286  0.2623076

 Al 
  0.2565628  0.5065801  0.2467700

 Al 
  0.2554156  0.7485025  0.9923011

 Al 
  0.0188580  0.9978565  0.4872519

 Al 
  0.9829018  0.2441055  0.7474036

 Al 
  0.2533934  0.0055430  0.7389139

 Al 
  0.2550592  0.2488132  0.4826494

 Al 
  0.0018341  0.4938357  0.5090837

 Al 
  0.0219667  0.7631640  0.7453480

 Al 
  0.2369635  0.5096084  0.7505124

 Al 
  0.2520902  0.7766373  0.5055232

 Al 
  0.4989567  0.5039268  0.9783934

 Al 
  0.4995310  0.7432949  0.2686055

 Al 
  0.7303091  0.4945040  0.2551136

 Al 
  0.7419657  0.7497661  0.0157641

 Al 
  0.5069860  0.9910821  0.5151651

 Al 
  0.4903062  0.2460658  0.7401564

 Al 
  0.7615452  0.9882023  0.7374363

 Al 
  0.7390401  0.2512697  0.5096431

 Al 
  0.4801928  0.5209012  0.5048005

 Al 
  0.4852681  0.7441092  0.7490508

 Al 
  0.7538921  0.5198344  0.7469729

 Al 
  0.7598646  0.7222279  0.4959952

