32 
charge = 0 
 Al 
  0.0114462  0.9920846  0.0000953

 Al 
  0.9750322  0.2588572  0.2344711

 Al 
  0.2581432  0.9958084  0.2560665

 Al 
  0.2625266  0.2699804  0.9960992

 Al 
  0.5048710  0.0103188  0.0163148

 Al 
  0.4987637  0.2303834  0.2487476

 Al 
  0.7443493  0.9969865  0.2668036

 Al 
  0.7645834  0.2453431  0.0015779

 Al 
  0.9861343  0.4975595  0.9954334

 Al 
  0.0118039  0.7336369  0.2621937

 Al 
  0.2564390  0.5060034  0.2462960

 Al 
  0.2551136  0.7486016  0.9921650

 Al 
  0.0186736  0.9980409  0.4870650

 Al 
  0.9829625  0.2444186  0.7477885

 Al 
  0.2531768  0.0049812  0.7388941

 Al 
  0.2547659  0.2485149  0.4823672

 Al 
  0.0016323  0.4943679  0.5088659

 Al 
  0.0220546  0.7630080  0.7458467

 Al 
  0.2367432  0.5096827  0.7506782

 Al 
  0.2526558  0.7763687  0.5057435

 Al 
  0.4996052  0.5048537  0.9782795

 Al 
  0.4996300  0.7431674  0.2688171

 Al 
  0.7303562  0.4941810  0.2547324

 Al 
  0.7426229  0.7494765  0.0156576

 Al 
  0.5072162  0.9910215  0.5147406

 Al 
  0.4900822  0.2455547  0.7402876

 Al 
  0.7609809  0.9880625  0.7377023

 Al 
  0.7387295  0.2515036  0.5096852

 Al 
  0.4799713  0.5210967  0.5041508

 Al 
  0.4852978  0.7441921  0.7495013

 Al 
  0.7537758  0.5201970  0.7468096

 Al 
  0.7598609  0.7217452  0.4961215

