32 
charge = 0 
 Al 
  0.0103955  0.9963183  0.0031013

 Al 
  0.9800257  0.2626368  0.2367383

 Al 
  0.2570256  0.9927603  0.2563747

 Al 
  0.2663668  0.2676365  0.9963294

 Al 
  0.5094649  0.0097421  0.0168878

 Al 
  0.4984803  0.2274603  0.2475051

 Al 
  0.7436129  0.9980211  0.2661589

 Al 
  0.7636107  0.2451092  0.0035629

 Al 
  0.9848584  0.4997574  0.9934842

 Al 
  0.0072039  0.7365663  0.2610069

 Al 
  0.2554973  0.5019962  0.2432528

 Al 
  0.2532040  0.7494802  0.9919200

 Al 
  0.0163791  0.9997970  0.4860044

 Al 
  0.9840231  0.2465732  0.7500495

 Al 
  0.2518811  0.0019145  0.7395649

 Al 
  0.2526038  0.2468653  0.4808314

 Al 
  0.0005322  0.4975979  0.5070096

 Al 
  0.0216227  0.7616727  0.7491807

 Al 
  0.2355663  0.5095862  0.7514739

 Al 
  0.2563796  0.7732736  0.5068103

 Al 
  0.5040060  0.5106344  0.9782090

 Al 
  0.5002463  0.7428617  0.2693233

 Al 
  0.7307683  0.4919497  0.2521088

 Al 
  0.7471190  0.7478689  0.0147678

 Al 
  0.5088436  0.9908000  0.5116195

 Al 
  0.4889275  0.2426452  0.7413767

 Al 
  0.7570318  0.9869610  0.7398965

 Al 
  0.7368756  0.2532511  0.5096431

 Al 
  0.4787659  0.5212093  0.5001856

 Al 
  0.4862433  0.7453035  0.7526261

 Al 
  0.7527820  0.5219952  0.7460695

 Al 
  0.7596579  0.7197540  0.4969271

