32 
charge = 0 
 Al 
  0.0090849  0.0011485  0.0068462

 Al 
  0.9879164  0.2661341  0.2414324

 Al 
  0.2555121  0.9894151  0.2552460

 Al 
  0.2693085  0.2639981  0.9966524

 Al 
  0.5141651  0.0071605  0.0150809

 Al 
  0.4981969  0.2267722  0.2474370

 Al 
  0.7443072  0.9983837  0.2652183

 Al 
  0.7601876  0.2445337  0.0043884

 Al 
  0.9845070  0.5031533  0.9915635

 Al 
  0.0015544  0.7402332  0.2587830

 Al 
  0.2540790  0.4974184  0.2399733

 Al 
  0.2512759  0.7508960  0.9932404

 Al 
  0.0116083  0.0026162  0.4854042

 Al 
  0.9864833  0.2490768  0.7519244

 Al 
  0.2507091  0.9998787  0.7419113

 Al 
  0.2497884  0.2457069  0.4799069

 Al 
  0.9999257  0.5005693  0.5040889

 Al 
  0.0188221  0.7597248  0.7528328

 Al 
  0.2350391  0.5081493  0.7517054

 Al 
  0.2600131  0.7672405  0.5071482

 Al 
  0.5088746  0.5160524  0.9797263

 Al 
  0.5008972  0.7436748  0.2676885

 Al 
  0.7314824  0.4893842  0.2489901

 Al 
  0.7525531  0.7469803  0.0134548

 Al 
  0.5106963  0.9908878  0.5075949

 Al 
  0.4883595  0.2404584  0.7430177

 Al 
  0.7523353  0.9854636  0.7433172

 Al 
  0.7353386  0.2555802  0.5090020

 Al 
  0.4779912  0.5186216  0.4967205

 Al 
  0.4888533  0.7478009  0.7561692

 Al 
  0.7512153  0.5225521  0.7459915

 Al 
  0.7589191  0.7203356  0.4975434

