32 
charge = 0 
 Al 
  0.0095985  0.9993057  0.0053859

 Al 
  0.9846716  0.2648953  0.2394263

 Al 
  0.2561123  0.9906836  0.2558462

 Al 
  0.2683543  0.2654992  0.9965274

 Al 
  0.5124474  0.0083857  0.0160623

 Al 
  0.4983045  0.2267202  0.2473021

 Al 
  0.7438419  0.9983429  0.2656044

 Al 
  0.7617432  0.2447762  0.0042275

 Al 
  0.9845032  0.5017648  0.9922442

 Al 
  0.0037387  0.7388050  0.2597322

 Al 
  0.2546656  0.4991325  0.2412084

 Al 
  0.2519801  0.7503168  0.9925338

 Al 
  0.0136701  0.0014727  0.4855403

 Al 
  0.9854091  0.2481239  0.7512945

 Al 
  0.2511249  0.0004888  0.7408445

 Al 
  0.2508972  0.2460683  0.4801495

 Al 
  0.0000705  0.4995161  0.5052931

 Al 
  0.0201723  0.7605007  0.7514702

 Al 
  0.2351245  0.5088572  0.7516955

 Al 
  0.2587459  0.7698084  0.5071209

 Al 
  0.5070640  0.5141503  0.9789441

 Al 
  0.5006522  0.7432330  0.2685944

 Al 
  0.7311742  0.4903507  0.2501893

 Al 
  0.7504356  0.7471883  0.0139857

 Al 
  0.5100106  0.9908185  0.5091741

 Al 
  0.4884820  0.2411539  0.7423494

 Al 
  0.7541310  0.9860490  0.7419026

 Al 
  0.7358472  0.2546569  0.5093077

 Al 
  0.4782065  0.5199433  0.4978999

 Al 
  0.4876850  0.7466994  0.7548463

 Al 
  0.7518613  0.5225298  0.7459321

 Al 
  0.7592743  0.7197589  0.4973615

