32 
charge = 0 
 Al 
  0.0081692  0.0043005  0.0093881

 Al 
  0.9939471  0.2679904  0.2452737

 Al 
  0.2544466  0.9872655  0.2538327

 Al 
  0.2705052  0.2611257  0.9968516

 Al 
  0.5168630  0.0044589  0.0127036

 Al 
  0.4980013  0.2276236  0.2480422

 Al 
  0.7456364  0.9982278  0.2644646

 Al 
  0.7569786  0.2441117  0.0043179

 Al 
  0.9848931  0.5056990  0.9905958

 Al 
  0.9978108  0.7427219  0.2569254

 Al 
  0.2529726  0.4946822  0.2378892

 Al 
  0.2501621  0.7519393  0.9949705

 Al 
  0.0075269  0.0046594  0.4854710

 Al 
  0.9886330  0.2506732  0.7527895

 Al 
  0.2500557  0.9992278  0.7441129

 Al 
  0.2478306  0.2452589  0.4798228

 Al 
  0.9999097  0.5021967  0.5018180

 Al 
  0.0158061  0.7583610  0.7550418

 Al 
  0.2352408  0.5065492  0.7515408

 Al 
  0.2617519  0.7622840  0.5069514

 Al 
  0.5117556  0.5188060  0.9816210

 Al 
  0.5013143  0.7447168  0.2653891

 Al 
  0.7321284  0.4878162  0.2469457

 Al 
  0.7562905  0.7470100  0.0124759

 Al 
  0.5117420  0.9910834  0.5048178

 Al 
  0.4884164  0.2396305  0.7442478

 Al 
  0.7493132  0.9844859  0.7460002

 Al 
  0.7346975  0.2572224  0.5083511

 Al 
  0.4778810  0.5155005  0.4950807

 Al 
  0.4912442  0.7500483  0.7582818

 Al 
  0.7499975  0.5220719  0.7462886

 Al 
  0.7580788  0.7222501  0.4976944

