32 
charge = 0 
 Al 
  0.0072187  0.0073957  0.0118732

 Al 
  0.0001955  0.2694545  0.2493082

 Al 
  0.2533860  0.9852099  0.2521026

 Al 
  0.2711673  0.2579390  0.9970175

 Al 
  0.5191401  0.0011732  0.0096914

 Al 
  0.4977959  0.2292424  0.2489901

 Al 
  0.7475224  0.9978652  0.2635835

 Al 
  0.7533402  0.2437478  0.0038934

 Al 
  0.9857359  0.5082793  0.9899485

 Al 
  0.9942367  0.7451673  0.2548933

 Al 
  0.2518205  0.4923939  0.2358794

 Al 
  0.2491869  0.7529491  0.9972217

 Al 
  0.0029924  0.0066643  0.4859462

 Al 
  0.9910425  0.2521595  0.7534120

 Al 
  0.2494468  0.9989840  0.7466091

 Al 
  0.2459024  0.2449483  0.4801978

 Al 
  0.0001485  0.5036496  0.4993886

 Al 
  0.0121083  0.7570467  0.7570182

 Al 
  0.2358905  0.5045827  0.7512165

 Al 
  0.2628261  0.7569539  0.5064997

 Al 
  0.5142035  0.5208542  0.9841443

 Al 
  0.5017437  0.7459878  0.2623051

 Al 
  0.7329439  0.4864524  0.2450151

 Al 
  0.7600441  0.7475286  0.0114289

 Al 
  0.5125377  0.9913556  0.5020519

 Al 
  0.4888075  0.2392344  0.7455225

 Al 
  0.7465014  0.9836543  0.7488874

 Al 
  0.7343683  0.2588634  0.5075924

 Al 
  0.4781706  0.5114932  0.4938790

 Al 
  0.4939557  0.7526125  0.7600936

 Al 
  0.7486882  0.5209829  0.7467539

 Al 
  0.7569316  0.7251733  0.4976350

