32 
charge = 0 
 Al 
  0.0085429  0.0030333  0.0083634

 Al 
  0.9914645  0.2672850  0.2436810

 Al 
  0.2548797  0.9881256  0.2544527

 Al 
  0.2700881  0.2623249  0.9967749

 Al 
  0.5158185  0.0056309  0.0137543

 Al 
  0.4980818  0.2271756  0.2477489

 Al 
  0.7450250  0.9983206  0.2647827

 Al 
  0.7583399  0.2442787  0.0043933

 Al 
  0.9846815  0.5046557  0.9909522

 Al 
  0.9993119  0.7417170  0.2577026

 Al 
  0.2534305  0.4957440  0.2387233

 Al 
  0.2505965  0.7515160  0.9942008

 Al 
  0.0092421  0.0038315  0.4853968

 Al 
  0.9877259  0.2500384  0.7524714

 Al 
  0.2503119  0.9994357  0.7431786

 Al 
  0.2486238  0.2454173  0.4798055

 Al 
  0.9998824  0.5015643  0.5027598

 Al 
  0.0171180  0.7589104  0.7541743

 Al 
  0.2351059  0.5072472  0.7516311

 Al 
  0.2611244  0.7643483  0.5070652

 Al 
  0.5106356  0.5177763  0.9807769

 Al 
  0.5011460  0.7442602  0.2664212

 Al 
  0.7318487  0.4884300  0.2477637

 Al 
  0.7547733  0.7469395  0.0128793

 Al 
  0.5113460  0.9909943  0.5059428

 Al 
  0.4883533  0.2399102  0.7437429

 Al 
  0.7505161  0.9848708  0.7448864

 Al 
  0.7349191  0.2565554  0.5086295

 Al 
  0.4778823  0.5168779  0.4956859

 Al 
  0.4902307  0.7490941  0.7574600

 Al 
  0.7505025  0.5223417  0.7461438

 Al 
  0.7584526  0.7213467  0.4976585

