32 
charge = 0 
 Al 
  0.0070306  0.0079848  0.0123373

 Al 
  0.0013960  0.2696847  0.2500829

 Al 
  0.2531855  0.9848312  0.2517462

 Al 
  0.2712341  0.2572892  0.9970435

 Al 
  0.5195201  0.0004851  0.0090577

 Al 
  0.4977563  0.2296285  0.2492018

 Al 
  0.7479395  0.9977798  0.2633954

 Al 
  0.7526063  0.2436897  0.0037746

 Al 
  0.9859524  0.5087644  0.9898668

 Al 
  0.9935808  0.7456277  0.2544924

 Al 
  0.2516014  0.4920214  0.2355020

 Al 
  0.2490174  0.7531323  0.9977031

 Al 
  0.0020828  0.0070355  0.4860898

 Al 
  0.9915276  0.2524293  0.7535073

 Al 
  0.2493305  0.9989778  0.7471128

 Al 
  0.2455423  0.2448963  0.4803289

 Al 
  0.0002203  0.5039169  0.4989085

 Al 
  0.0113311  0.7568066  0.7573660

 Al 
  0.2360700  0.5041706  0.7511410

 Al 
  0.2629474  0.7559056  0.5063858

 Al 
  0.5146131  0.5211623  0.9846988

 Al 
  0.5018316  0.7462477  0.2616306

 Al 
  0.7331258  0.4862210  0.2446661

 Al 
  0.7607581  0.7476870  0.0112185

 Al 
  0.5126553  0.9914150  0.5015272

 Al 
  0.4889238  0.2392072  0.7457700

 Al 
  0.7459952  0.9835219  0.7494579

 Al 
  0.7343436  0.2591741  0.5074365

 Al 
  0.4782820  0.5106294  0.4936909

 Al 
  0.4945015  0.7531323  0.7604005

 Al 
  0.7484283  0.5207032  0.7468566

 Al 
  0.7566717  0.7258428  0.4975991

