32 
charge = 0 
 Al 
  0.0077892  0.0055591  0.0104067

 Al 
  0.9964680  0.2686340  0.2468987

 Al 
  0.2540147  0.9864190  0.2531607

 Al 
  0.2708368  0.2598733  0.9969234

 Al 
  0.5178407  0.0031917  0.0115477

 Al 
  0.4979184  0.2281966  0.2483912

 Al 
  0.7463393  0.9981003  0.2641255

 Al 
  0.7555468  0.2439533  0.0041854

 Al 
  0.9851802  0.5067484  0.9902913

 Al 
  0.9963368  0.7437194  0.2561173

 Al 
  0.2525061  0.4936921  0.2370662

 Al 
  0.2497500  0.7523576  0.9958269

 Al 
  0.0057361  0.0054824  0.4856121

 Al 
  0.9895822  0.2512908  0.7530679

 Al 
  0.2498057  0.9990854  0.7450955

 Al 
  0.2470422  0.2451215  0.4799156

 Al 
  0.9999790  0.5028006  0.5008502

 Al 
  0.0143830  0.7578189  0.7558735

 Al 
  0.2354487  0.5057918  0.7514244

 Al 
  0.2622717  0.7601567  0.5067979

 Al 
  0.5128051  0.5197230  0.9825689

 Al 
  0.5014851  0.7452119  0.2642283

 Al 
  0.7324353  0.4872345  0.2461450

 Al 
  0.7578140  0.7471598  0.0120613

 Al 
  0.5120984  0.9911848  0.5036929

 Al 
  0.4885327  0.2394201  0.7447614

 Al 
  0.7481437  0.9841245  0.7471499

 Al 
  0.7345255  0.2578907  0.5080553

 Al 
  0.4779442  0.5139783  0.4945461

 Al 
  0.4923123  0.7510544  0.7590565

 Al 
  0.7494765  0.5217031  0.7464618

 Al 
  0.7576543  0.7233194  0.4976944

