32 
charge = 0 
 Al 
  0.0040283  0.0163544  0.0174509

 Al 
  0.0159039  0.2696401  0.2588139

 Al 
  0.2505260  0.9809997  0.2469853

 Al 
  0.2693221  0.2463034  0.9974457

 Al 
  0.5213579  0.9892951  0.9994097

 Al 
  0.4973863  0.2375563  0.2526880

 Al 
  0.7549354  0.9968034  0.2590664

 Al 
  0.7416044  0.2438988  0.0004876

 Al 
  0.9918049  0.5134177  0.9911638

 Al 
  0.9868756  0.7515036  0.2493342

 Al 
  0.2496201  0.4908544  0.2306569

 Al 
  0.2473615  0.7545753  0.0053277

 Al 
  0.9885142  0.0108608  0.4911613

 Al 
  0.9986857  0.2552596  0.7542090

 Al 
  0.2473392  0.9997735  0.7547857

 Al 
  0.2419200  0.2440609  0.4859314

 Al 
  0.0018898  0.5077966  0.4921996

 Al 
  0.9987006  0.7546495  0.7601814

 Al 
  0.2412900  0.4975447  0.7501510

 Al 
  0.2606690  0.7414237  0.5036718

 Al 
  0.5167727  0.5213133  0.9951512

 Al 
  0.5037436  0.7498552  0.2494703

 Al 
  0.7374338  0.4847805  0.2414212

 Al 
  0.7690931  0.7526744  0.0075033

 Al 
  0.5123187  0.9925177  0.4948196

 Al 
  0.4929496  0.2409571  0.7491387

 Al 
  0.7415710  0.9842236  0.7573895

 Al 
  0.7360638  0.2629251  0.5047659

 Al 
  0.4831060  0.4949928  0.4921885

 Al 
  0.5020346  0.7603126  0.7622308

 Al 
  0.7444149  0.5133496  0.7484370

 Al 
  0.7507623  0.7395253  0.4963616

