32 
charge = 0 
 Al 
  0.0051285  0.0134882  0.0161836

 Al 
  0.0119029  0.2706005  0.2566766

 Al 
  0.2513774  0.9818103  0.2483726

 Al 
  0.2706945  0.2504492  0.9972415

 Al 
  0.5217502  0.9932837  0.0026001

 Al 
  0.4974395  0.2343560  0.2515061

 Al 
  0.7524751  0.9969383  0.2610539

 Al 
  0.7453975  0.2435139  0.0019912

 Al 
  0.9890896  0.5126083  0.9900648

 Al 
  0.9883496  0.7496931  0.2508292

 Al 
  0.2498824  0.4901304  0.2321556

 Al 
  0.2477489  0.7544317  0.0027412

 Al 
  0.9931612  0.0100106  0.4885897

 Al 
  0.9962811  0.2545567  0.7540864

 Al 
  0.2481474  0.9993998  0.7521187

 Al 
  0.2426662  0.2444087  0.4829810

 Al 
  0.0012314  0.5063994  0.4943555

 Al 
  0.0032078  0.7549874  0.7598535

 Al 
  0.2388322  0.4998998  0.7503973

 Al 
  0.2623991  0.7460955  0.5048488

 Al 
  0.5170313  0.5223417  0.9910759

 Al 
  0.5028885  0.7487315  0.2541038

 Al 
  0.7354487  0.4847706  0.2420276

 Al 
  0.7669039  0.7503230  0.0089699

 Al 
  0.5129833  0.9920969  0.4968492

 Al 
  0.4909386  0.2398235  0.7480434

 Al 
  0.7422269  0.9831791  0.7548871

 Al 
  0.7349005  0.2618744  0.5057782

 Al 
  0.4806222  0.5010222  0.4924818

 Al 
  0.4996931  0.7581246  0.7623249

 Al 
  0.7458517  0.5167133  0.7479122

 Al 
  0.7533464  0.7339389  0.4968999

