32 
charge = 0 
 Al 
  0.0049701  0.0139127  0.0164163

 Al 
  0.0125897  0.2705373  0.2570764

 Al 
  0.2512462  0.9816432  0.2481362

 Al 
  0.2705448  0.2498589  0.9972613

 Al 
  0.5217786  0.9926897  0.0020977

 Al 
  0.4974246  0.2348015  0.2516917

 Al 
  0.7528501  0.9968925  0.2608039

 Al 
  0.7448295  0.2435424  0.0017945

 Al 
  0.9894386  0.5128026  0.9901762

 Al 
  0.9880575  0.7499777  0.2505767

 Al 
  0.2498032  0.4901478  0.2319192

 Al 
  0.2476808  0.7544825  0.0031422

 Al 
  0.9924632  0.0101765  0.4889015

 Al 
  0.9966487  0.2546817  0.7541112

 Al 
  0.2480385  0.9994567  0.7525172

 Al 
  0.2425103  0.2443654  0.4833325

 Al 
  0.0013279  0.5065987  0.4940176

 Al 
  0.0025395  0.7549020  0.7599574

 Al 
  0.2391453  0.4995508  0.7503490

 Al 
  0.2622086  0.7453703  0.5046916

 Al 
  0.5170722  0.5222736  0.9916551

 Al 
  0.5029974  0.7489122  0.2534392

 Al 
  0.7356987  0.4847310  0.2418952

 Al 
  0.7672937  0.7506287  0.0087681

 Al 
  0.5129301  0.9921563  0.4965224

 Al 
  0.4911873  0.2399510  0.7482117

 Al 
  0.7420536  0.9832607  0.7552881

 Al 
  0.7350243  0.2620526  0.5056346

 Al 
  0.4809279  0.5001671  0.4924249

 Al 
  0.5000705  0.7584860  0.7623731

 Al 
  0.7456438  0.5162789  0.7479939

 Al 
  0.7530060  0.7347087  0.4968232

