32 
charge = 0 
 Al 
  0.0032003  0.0183951  0.0178630

 Al 
  0.0177306  0.2681253  0.2594414

 Al 
  0.2499802  0.9809292  0.2463752

 Al 
  0.2678382  0.2431674  0.9977563

 Al 
  0.5201574  0.9866083  0.9975731

 Al 
  0.4974172  0.2400587  0.2533464

 Al 
  0.7564712  0.9970558  0.2571741

 Al 
  0.7390018  0.2444953  0.9991869

 Al 
  0.9942317  0.5131825  0.9924385

 Al 
  0.9866145  0.7526348  0.2486214

 Al 
  0.2498713  0.4922232  0.2297696

 Al 
  0.2471623  0.7543909  0.0068846

 Al 
  0.9853584  0.0110527  0.4937082

 Al 
  0.0002339  0.2555851  0.7542609

 Al 
  0.2466524  0.9999406  0.7566123

 Al 
  0.2418606  0.2437243  0.4889114

 Al 
  0.0022957  0.5088721  0.4908965

 Al 
  0.9955930  0.7547696  0.7598139

 Al 
  0.2435449  0.4958938  0.7501139

 Al 
  0.2588721  0.7384634  0.5026608

 Al 
  0.5158160  0.5197354  0.9981956

 Al 
  0.5045357  0.7505185  0.2460670

 Al 
  0.7393433  0.4852049  0.2414101

 Al 
  0.7699446  0.7546904  0.0063128

 Al 
  0.5113757  0.9928407  0.4936365

 Al 
  0.4948567  0.2421551  0.7498589

 Al 
  0.7419336  0.9857643  0.7587805

 Al 
  0.7374313  0.2634040  0.5039850

 Al 
  0.4854698  0.4904398  0.4921006

 Al 
  0.5033290  0.7613670  0.7614858

 Al 
  0.7433617  0.5103312  0.7487736

 Al 
  0.7485186  0.7439805  0.4959866

