32 
charge = 0 
 Al 
  0.0018700  0.0214470  0.0176724

 Al 
  0.0189941  0.2646193  0.2590825

 Al 
  0.2492698  0.9816667  0.2461623

 Al 
  0.2649733  0.2383261  0.9985954

 Al 
  0.5169051  0.9830875  0.9956846

 Al 
  0.4975521  0.2439978  0.2538872

 Al 
  0.7582224  0.9981424  0.2535988

 Al 
  0.7352990  0.2459457  0.9969927

 Al 
  0.9984877  0.5115588  0.9949842

 Al 
  0.9874449  0.7541607  0.2481239

 Al 
  0.2508861  0.4953468  0.2288055

 Al 
  0.2468554  0.7537535  0.0085800

 Al 
  0.9809254  0.0107495  0.4986115

 Al 
  0.0022338  0.2559155  0.7543414

 Al 
  0.2454891  0.9998750  0.7591728

 Al 
  0.2424224  0.2430300  0.4946859

 Al 
  0.0026583  0.5105477  0.4893322

 Al 
  0.9912442  0.7554180  0.7583189

 Al 
  0.2476858  0.4934805  0.7503082

 Al 
  0.2555888  0.7345676  0.5008725

 Al 
  0.5133508  0.5160759  0.0027338

 Al 
  0.5060146  0.7513514  0.2410475

 Al 
  0.7430672  0.4864846  0.2419596

 Al 
  0.7701252  0.7579773  0.0043278

 Al 
  0.5091914  0.9934186  0.4922133

 Al 
  0.4983182  0.2444607  0.7508836

 Al 
  0.7437305  0.9894201  0.7601653

 Al 
  0.7404225  0.2636082  0.5027078

 Al 
  0.4898025  0.4835194  0.4921551

 Al 
  0.5046371  0.7619487  0.7592236

 Al 
  0.7417554  0.5049366  0.7492612

 Al 
  0.7445770  0.7511621  0.4955076

