32 
charge = 0 
 Al 
  0.0006039  0.0240335  0.0166972

 Al 
  0.0189359  0.2605119  0.2577595

 Al 
  0.2487637  0.9831518  0.2467081

 Al 
  0.2620291  0.2341468  0.9997488

 Al 
  0.5127370  0.9807646  0.9948678

 Al 
  0.4977315  0.2474420  0.2538142

 Al 
  0.7590961  0.9999084  0.2498366

 Al 
  0.7323078  0.2477241  0.9949990

 Al 
  0.0026459  0.5089859  0.9976697

 Al 
  0.9892641  0.7554119  0.2482080

 Al 
  0.2522536  0.4987860  0.2284491

 Al 
  0.2464754  0.7529442  0.0093089

 Al 
  0.9774108  0.0100045  0.5038204

 Al 
  0.0036372  0.2561420  0.7544565

 Al 
  0.2444037  0.9994072  0.7611579

 Al 
  0.2434013  0.2421910  0.5008131

 Al 
  0.0026286  0.5119412  0.4883422

 Al 
  0.9878645  0.7562732  0.7561383

 Al 
  0.2519900  0.4914658  0.7507487

 Al 
  0.2524219  0.7316742  0.4990656

 Al 
  0.5103980  0.5116814  0.0064725

 Al 
  0.5075788  0.7519479  0.2369499

 Al 
  0.7471561  0.4882357  0.2428667

 Al 
  0.7692936  0.7608423  0.0024528

 Al 
  0.5064960  0.9941451  0.4912566

 Al 
  0.5017289  0.2467823  0.7517611

 Al 
  0.7463084  0.9939570  0.7607222

 Al 
  0.7440114  0.2631640  0.5014504

 Al 
  0.4941859  0.4777214  0.4924199

 Al 
  0.5052052  0.7613744  0.7561185

 Al 
  0.7403767  0.4995743  0.7497154

 Al 
  0.7406564  0.7576630  0.4952020

