32 
charge = 0 
 Al 
  0.0001844  0.0247933  0.0162170

 Al 
  0.0187218  0.2590552  0.2571940

 Al 
  0.2486325  0.9837916  0.2470385

 Al 
  0.2610576  0.2329031  0.0001992

 Al 
  0.5111876  0.9802473  0.9947713

 Al 
  0.4977971  0.2484728  0.2536607

 Al 
  0.7592174  0.0006472  0.2485632

 Al 
  0.7314539  0.2483714  0.9944037

 Al 
  0.0039961  0.5079637  0.9985681

 Al 
  0.9900327  0.7557967  0.2483330

 Al 
  0.2527523  0.4999381  0.2284751

 Al 
  0.2463195  0.7526570  0.0093510

 Al 
  0.9764195  0.0096889  0.5055901

 Al 
  0.0039936  0.2562138  0.7545060

 Al 
  0.2440634  0.9991634  0.7616999

 Al 
  0.2437800  0.2418729  0.5028922

 Al 
  0.0025283  0.5123274  0.4881182

 Al 
  0.9869276  0.7565616  0.7552906

 Al 
  0.2534540  0.4908717  0.7509480

 Al 
  0.2514257  0.7308920  0.4984654

 Al 
  0.5093498  0.5100861  0.0075491

 Al 
  0.5081172  0.7521014  0.2357779

 Al 
  0.7485879  0.4889139  0.2432157

 Al 
  0.7688407  0.7616814  0.0018526

 Al 
  0.5054861  0.9944471  0.4910178

 Al 
  0.5028216  0.2475212  0.7520271

 Al 
  0.7472675  0.9956438  0.7607705

 Al 
  0.7453344  0.2628706  0.5010222

 Al 
  0.4956364  0.4760457  0.4925548

 Al 
  0.5052708  0.7609599  0.7549280

 Al 
  0.7399733  0.4978281  0.7498676

 Al 
  0.7393656  0.7596716  0.4951314

