32 
charge = 0 
 Al 
  0.0010297  0.0232080  0.0171056

 Al 
  0.0190609  0.2619499  0.2582793

 Al 
  0.2489159  0.9825764  0.2464494

 Al 
  0.2630229  0.2354883  0.9993255

 Al 
  0.5142295  0.9814242  0.9950510

 Al 
  0.4976672  0.2463331  0.2539020

 Al 
  0.7588869  0.9992377  0.2511225

 Al 
  0.7332496  0.2470942  0.9956425

 Al 
  0.0012549  0.5099413  0.9967563

 Al 
  0.9885637  0.7550084  0.2481276

 Al 
  0.2517672  0.4976127  0.2285011

 Al 
  0.2466165  0.7532288  0.0091617

 Al 
  0.9785097  0.0102928  0.5020370

 Al 
  0.0032189  0.2560690  0.7544119

 Al 
  0.2447614  0.9996089  0.7605453

 Al 
  0.2430399  0.2424917  0.4987166

 Al 
  0.0026818  0.5115069  0.4886231

 Al 
  0.9889114  0.7559762  0.7569390

 Al 
  0.2505185  0.4921093  0.7505742

 Al 
  0.2534689  0.7325603  0.4996770

 Al 
  0.5114326  0.5132357  0.0052918

 Al 
  0.5070405  0.7517685  0.2382407

 Al 
  0.7457366  0.4875971  0.2425338

 Al 
  0.7696661  0.7599265  0.0030753

 Al 
  0.5074625  0.9938728  0.4915388

 Al 
  0.5005916  0.2460089  0.7514764

 Al 
  0.7453789  0.9923345  0.7606071

 Al 
  0.7427355  0.2633842  0.5018786

 Al 
  0.4927058  0.4795592  0.4923073

 Al 
  0.5050790  0.7616826  0.7572484

 Al 
  0.7408173  0.5013737  0.7495619

 Al 
  0.7419769  0.7555406  0.4952886

