32 
charge = 0 
 Al 
  0.9993825  0.0260470  0.0150735

 Al 
  0.0180919  0.2562225  0.2560133

 Al 
  0.2484444  0.9852074  0.2478763

 Al 
  0.2592718  0.2308141  0.0011423

 Al 
  0.5080602  0.9796693  0.9947985

 Al 
  0.4979271  0.2502240  0.2531743

 Al 
  0.7592000  0.0022722  0.2461561

 Al 
  0.7300715  0.2496547  0.9934347

 Al 
  0.0064675  0.5058128  0.0002339

 Al 
  0.9916712  0.7564997  0.2486981

 Al 
  0.2537313  0.5020581  0.2287795

 Al 
  0.2459754  0.7521088  0.0091208

 Al 
  0.9748354  0.0090119  0.5089290

 Al 
  0.0045084  0.2563611  0.7546211

 Al 
  0.2434521  0.9985657  0.7625328

 Al 
  0.2445448  0.2412121  0.5068214

 Al 
  0.0021942  0.5129041  0.4878546

 Al 
  0.9854413  0.7570665  0.7535370

 Al 
  0.2562472  0.4898693  0.7514108

 Al 
  0.2496720  0.7296817  0.4973417

 Al 
  0.5073128  0.5069118  0.0093201

 Al 
  0.5091555  0.7523167  0.2338647

 Al 
  0.7513799  0.4903346  0.2439161

 Al 
  0.7677516  0.7630612  0.0007524

 Al 
  0.5033983  0.9951426  0.4906762

 Al 
  0.5047745  0.2488107  0.7524875

 Al 
  0.7491547  0.9990731  0.7606925

 Al 
  0.7480199  0.2620885  0.5001881

 Al 
  0.4983342  0.4733021  0.4928778

 Al 
  0.5052299  0.7598572  0.7524788

 Al 
  0.7393211  0.4946475  0.7501658

 Al 
  0.7369771  0.7631961  0.4950324

