32 
charge = 0 
 Al 
  0.9990025  0.0265210  0.0144263

 Al 
  0.0177046  0.2548884  0.2554378

 Al 
  0.2483875  0.9859599  0.2483689

 Al 
  0.2584810  0.2299911  0.0016212

 Al 
  0.5065269  0.9796050  0.9949012

 Al 
  0.4979877  0.2509257  0.2528501

 Al 
  0.7590713  0.0031397  0.2450547

 Al 
  0.7295592  0.2502698  0.9930820

 Al 
  0.0075603  0.5047188  0.0009777

 Al 
  0.9925066  0.7568202  0.2489233

 Al 
  0.2541941  0.5029887  0.2290592

 Al 
  0.2457898  0.7518563  0.0088572

 Al 
  0.9742599  0.0086629  0.5104487

 Al 
  0.0046681  0.2564415  0.7546866

 Al 
  0.2431885  0.9982204  0.7628162

 Al 
  0.2449136  0.2408730  0.5086196

 Al 
  0.0019640  0.5130860  0.4878137

 Al 
  0.9848931  0.7572633  0.7526620

 Al 
  0.2575442  0.4894683  0.7516682

 Al 
  0.2489394  0.7292597  0.4968343

 Al 
  0.5063524  0.5053784  0.0100032

 Al 
  0.5096418  0.7523749  0.2331357

 Al 
  0.7527028  0.4910598  0.2442503

 Al 
  0.7671415  0.7635860  0.0002587

 Al 
  0.5023402  0.9955349  0.4905698

 Al 
  0.5056037  0.2493342  0.7526744

 Al 
  0.7500408  0.0007673  0.7605836

 Al 
  0.7493503  0.2616096  0.4997871

 Al 
  0.4995483  0.4722600  0.4930597

 Al 
  0.5051359  0.7591951  0.7512598

 Al 
  0.7390872  0.4932615  0.7503094

 Al 
  0.7359116  0.7646775  0.4950002

