32 
charge = 0 
 Al 
  0.9991919  0.0262970  0.0147555

 Al 
  0.0179038  0.2555468  0.2557237

 Al 
  0.2484122  0.9855799  0.2481177

 Al 
  0.2588671  0.2303834  0.0013811

 Al 
  0.5072892  0.9796186  0.9948443

 Al 
  0.4979580  0.2505891  0.2530184

 Al 
  0.7591456  0.0027028  0.2455968

 Al 
  0.7298005  0.2499653  0.9932466

 Al 
  0.0070269  0.5052671  0.0006138

 Al 
  0.9920895  0.7566618  0.2488082

 Al 
  0.2539652  0.5025345  0.2289082

 Al 
  0.2458839  0.7519801  0.0090008

 Al 
  0.9745297  0.0088374  0.5097025

 Al 
  0.0045963  0.2563994  0.7546532

 Al 
  0.2433172  0.9983961  0.7626863

 Al 
  0.2447305  0.2410425  0.5077360

 Al 
  0.0020841  0.5130043  0.4878261

 Al 
  0.9851505  0.7571704  0.7530976

 Al 
  0.2569056  0.4896602  0.7515371

 Al 
  0.2492934  0.7294552  0.4970831

 Al 
  0.5068264  0.5061395  0.0096777

 Al 
  0.5094018  0.7523501  0.2334810

 Al 
  0.7520482  0.4906960  0.2440845

 Al 
  0.7674509  0.7633372  0.0005012

 Al 
  0.5028699  0.9953344  0.4906180

 Al 
  0.5052027  0.2490842  0.7525853

 Al 
  0.7496040  0.9999233  0.7606430

 Al 
  0.7486869  0.2618558  0.4999864

 Al 
  0.4989530  0.4727538  0.4929669

 Al 
  0.5051891  0.7595342  0.7518675

 Al 
  0.7391961  0.4939372  0.7502376

 Al 
  0.7364326  0.7639609  0.4950151

