32 
charge = 0 
 Al 
  0.9982699  0.0271534  0.0129956

 Al 
  0.0168321  0.2524244  0.2543686

 Al 
  0.2483491  0.9875278  0.2494802

 Al 
  0.2571222  0.2287907  0.0025840

 Al 
  0.5035642  0.9798921  0.9952329

 Al 
  0.4981053  0.2519838  0.2520568

 Al 
  0.7586035  0.0049564  0.2430721

 Al 
  0.7288909  0.2514306  0.9926674

 Al 
  0.0094513  0.5025246  0.0022734

 Al 
  0.9941525  0.7574204  0.2494270

 Al 
  0.2550554  0.5045604  0.2298785

 Al 
  0.2453950  0.7514083  0.0080590

 Al 
  0.9735384  0.0079600  0.5131454

 Al 
  0.0048104  0.2566296  0.7548302

 Al 
  0.2427392  0.9974481  0.7631244

 Al 
  0.2456079  0.2401861  0.5118497

 Al 
  0.0013898  0.5132258  0.4879090

 Al 
  0.9841493  0.7575231  0.7509529

 Al 
  0.2599240  0.4888607  0.7522313

 Al 
  0.2477749  0.7287610  0.4959383

 Al 
  0.5045728  0.5024590  0.0109896

 Al 
  0.5105403  0.7523947  0.2321036

 Al 
  0.7551817  0.4925288  0.2448604

 Al 
  0.7658272  0.7643112  0.9993726

 Al 
  0.5002054  0.9964185  0.4904782

 Al 
  0.5069464  0.2501101  0.7529578

 Al 
  0.7516422  0.0040790  0.7602730

 Al 
  0.7519591  0.2604995  0.4990137

 Al 
  0.5017066  0.4708109  0.4934582

 Al 
  0.5048265  0.7576976  0.7488837

 Al 
  0.7388223  0.4909262  0.7505829

 Al 
  0.7340453  0.7670920  0.4949532

