32 
charge = 0 
 Al 
  0.9973516  0.0273526  0.0109264

 Al 
  0.0155920  0.2496770  0.2532214

 Al 
  0.2484332  0.9896268  0.2511027

 Al 
  0.2557930  0.2280593  0.0038043

 Al 
  0.5000037  0.9809700  0.9958158

 Al 
  0.4982526  0.2527226  0.2508057

 Al 
  0.7576457  0.0074192  0.2409336

 Al 
  0.7286966  0.2527660  0.9927120

 Al 
  0.0113373  0.4997314  0.0035766

 Al 
  0.9961499  0.7581506  0.2501238

 Al 
  0.2560220  0.5060220  0.2314180

 Al 
  0.2448493  0.7509405  0.0065752

 Al 
  0.9734283  0.0070615  0.5159151

 Al 
  0.0047139  0.2569526  0.7550394

 Al 
  0.2422986  0.9963257  0.7630550

 Al 
  0.2463950  0.2392938  0.5153025

 Al 
  0.0004666  0.5129919  0.4883545

 Al 
  0.9837731  0.7575640  0.7488961

 Al 
  0.2625687  0.4884177  0.7530407

 Al 
  0.2468294  0.7287300  0.4950176

 Al 
  0.5025605  0.4990322  0.0116059

 Al 
  0.5115427  0.7522375  0.2314984

 Al 
  0.7580330  0.4944433  0.2454977

 Al 
  0.7640142  0.7646676  0.9983837

 Al 
  0.4974296  0.9977526  0.4905636

 Al 
  0.5080640  0.2505581  0.7531446

 Al 
  0.7533055  0.0081370  0.7597755

 Al 
  0.7551755  0.2588226  0.4980595

 Al 
  0.5039961  0.4700597  0.4940139

 Al 
  0.5042362  0.7555183  0.7460101

 Al 
  0.7388929  0.4887728  0.7509121

 Al 
  0.7321506  0.7692255  0.4948988

