32 
charge = 0 
 Al 
  0.9965559  0.0270234  0.0089723

 Al 
  0.0144659  0.2476523  0.2524566

 Al 
  0.2485966  0.9914819  0.2526249

 Al 
  0.2549577  0.2280444  0.0048166

 Al 
  0.4971623  0.9823907  0.9963838

 Al 
  0.4983974  0.2528996  0.2495867

 Al 
  0.7565628  0.0096171  0.2394028

 Al 
  0.7290555  0.2537857  0.9932293

 Al 
  0.0125538  0.4973603  0.0044230

 Al 
  0.9977340  0.7587731  0.2507165

 Al 
  0.2567361  0.5068425  0.2331345

 Al 
  0.2443530  0.7506163  0.0049824

 Al 
  0.9739963  0.0062942  0.5177145

 Al 
  0.0044527  0.2573152  0.7552411

 Al 
  0.2420177  0.9952775  0.7626491

 Al 
  0.2469766  0.2385290  0.5177330

 Al 
  0.9995594  0.5124722  0.4889956

 Al 
  0.9838362  0.7573363  0.7472774

 Al 
  0.2645141  0.4882803  0.7537993

 Al 
  0.2464284  0.7291495  0.4944186

 Al 
  0.5010457  0.4963665  0.0116727

 Al 
  0.5122729  0.7519553  0.2314712

 Al 
  0.7602136  0.4961153  0.2459037

 Al 
  0.7623818  0.7645525  0.9976078

 Al 
  0.4950200  0.9990681  0.4907962

 Al 
  0.5085454  0.2504876  0.7531632

 Al 
  0.7543686  0.0114413  0.7593287

 Al 
  0.7578004  0.2572113  0.4972551

 Al 
  0.5056334  0.4702106  0.4945065

 Al 
  0.5036001  0.7534924  0.7437268

 Al 
  0.7393000  0.4875885  0.7511757

 Al 
  0.7309044  0.7703666  0.4948332

