32 
charge = 0 
 Al 
  0.9975397  0.0273662  0.0113695

 Al 
  0.0158544  0.2502030  0.2534342

 Al 
  0.2484048  0.9891911  0.2507549

 Al 
  0.2560306  0.2281409  0.0035568

 Al 
  0.5007104  0.9806928  0.9956871

 Al 
  0.4982216  0.2526224  0.2510792

 Al 
  0.7578709  0.0069056  0.2413371

 Al 
  0.7286793  0.2525073  0.9926514

 Al 
  0.0109957  0.5002995  0.0033402

 Al 
  0.9957539  0.7580033  0.2499802

 Al 
  0.2558363  0.5057708  0.2310603

 Al 
  0.2449644  0.7510272  0.0069155

 Al 
  0.9733800  0.0072447  0.5154101

 Al 
  0.0047547  0.2568784  0.7549936

 Al 
  0.2423779  0.9965658  0.7631083

 Al 
  0.2462440  0.2394770  0.5146552

 Al 
  0.0006695  0.5130748  0.4882357

 Al 
  0.9838053  0.7575838  0.7493033

 Al 
  0.2620625  0.4884808  0.7528674

 Al 
  0.2469766  0.7286867  0.4951859

 Al 
  0.5029491  0.4997042  0.0115316

 Al 
  0.5113509  0.7522858  0.2315653

 Al 
  0.7574774  0.4940486  0.2453827

 Al 
  0.7643941  0.7646416  0.9985768

 Al 
  0.4980013  0.9974618  0.4905289

 Al 
  0.5078870  0.2505148  0.7531224

 Al 
  0.7530023  0.0073251  0.7598807

 Al 
  0.7545295  0.2591852  0.4982513

 Al 
  0.5035654  0.4701228  0.4938976

 Al 
  0.5043711  0.7559824  0.7465794

 Al 
  0.7388409  0.4891404  0.7508465

 Al 
  0.7324972  0.7688666  0.4949099

