32 
charge = 0 
 Al 
  0.9958913  0.0264603  0.0072793

 Al 
  0.0135204  0.2461846  0.2519677

 Al 
  0.2487711  0.9930214  0.2539305

 Al 
  0.2544292  0.2283662  0.0056074

 Al 
  0.4949767  0.9838003  0.9968628

 Al 
  0.4985384  0.2528006  0.2485397

 Al 
  0.7555381  0.0114450  0.2383137

 Al 
  0.7296495  0.2545468  0.9939273

 Al 
  0.0133347  0.4954445  0.0049725

 Al 
  0.9989369  0.7592916  0.2511782

 Al 
  0.2572496  0.5072744  0.2347619

 Al 
  0.2439335  0.7503874  0.0035221

 Al 
  0.9748503  0.0056680  0.5188369

 Al 
  0.0041681  0.2576716  0.7554180

 Al 
  0.2418370  0.9943852  0.7621294

 Al 
  0.2473925  0.2379202  0.5194297

 Al 
  0.9987761  0.5118732  0.4896713

 Al 
  0.9840701  0.7569860  0.7460571

 Al 
  0.2659138  0.4882939  0.7544503

 Al 
  0.2463183  0.7297300  0.4940436

 Al 
  0.4999220  0.4943592  0.0114871

 Al 
  0.5127890  0.7516422  0.2316890

 Al 
  0.7618447  0.4975038  0.2461450

 Al 
  0.7610094  0.7642394  0.9969915

 Al 
  0.4930449  0.0002376  0.4910821

 Al 
  0.5086741  0.2501634  0.7530951

 Al 
  0.7550072  0.0140253  0.7589773

 Al 
  0.7598460  0.2558153  0.4966004

 Al 
  0.5068153  0.4707415  0.4949062

 Al 
  0.5030159  0.7517747  0.7419855

 Al 
  0.7398396  0.4869932  0.7513799

 Al 
  0.7300938  0.7709519  0.4947602

