32 
charge = 0 
 Al 
  0.9956537  0.0262079  0.0066655

 Al 
  0.0131825  0.2457007  0.2518217

 Al 
  0.2488392  0.9935684  0.2543995

 Al 
  0.2542671  0.2285394  0.0058784

 Al 
  0.4942330  0.9843386  0.9970323

 Al 
  0.4985941  0.2527251  0.2481659

 Al 
  0.7551520  0.0120935  0.2379585

 Al 
  0.7299156  0.2548030  0.9942243

 Al 
  0.0135736  0.4947738  0.0051421

 Al 
  0.9993441  0.7594773  0.2513341

 Al 
  0.2574167  0.5073833  0.2353782

 Al 
  0.2437825  0.7503106  0.0029813

 Al 
  0.9752252  0.0054465  0.5191661

 Al 
  0.0040567  0.2578078  0.7554824

 Al 
  0.2417838  0.9940659  0.7619128

 Al 
  0.2475261  0.2377110  0.5199767

 Al 
  0.9984964  0.5116306  0.4899374

 Al 
  0.9841827  0.7568313  0.7456475

 Al 
  0.2663730  0.4883199  0.7546842

 Al 
  0.2463170  0.7299750  0.4939322

 Al 
  0.4995458  0.4936835  0.0113794

 Al 
  0.5129536  0.7515185  0.2318041

 Al 
  0.7623917  0.4979976  0.2462118

 Al 
  0.7605193  0.7640921  0.9967737

 Al 
  0.4923506  0.0006683  0.4912034

 Al 
  0.5086716  0.2500012  0.7530555

 Al 
  0.7551879  0.0149126  0.7588572

 Al 
  0.7605453  0.2553116  0.4963690

 Al 
  0.5072063  0.4709977  0.4950460

 Al 
  0.5027981  0.7511608  0.7413977

 Al 
  0.7400686  0.4868497  0.7514492

 Al 
  0.7298463  0.7710992  0.4947292

