32 
charge = 0 
 Al 
  0.9951525  0.0255965  0.0053624

 Al 
  0.0124697  0.2447404  0.2515544

 Al 
  0.2489864  0.9947144  0.2553896

 Al 
  0.2539627  0.2289850  0.0064254

 Al 
  0.4927207  0.9855180  0.9973863

 Al 
  0.4987204  0.2525073  0.2473838

 Al 
  0.7543104  0.0134474  0.2372556

 Al 
  0.7305554  0.2553215  0.9949173

 Al 
  0.0140166  0.4933790  0.0054614

 Al 
  0.0001646  0.7598708  0.2516472

 Al 
  0.2577459  0.5075504  0.2367284

 Al 
  0.2434632  0.7501572  0.0018180

 Al 
  0.9761188  0.0049812  0.5197577

 Al 
  0.0038154  0.2581122  0.7556198

 Al 
  0.2416836  0.9933939  0.7614091

 Al 
  0.2477897  0.2372878  0.5210448

 Al 
  0.9979085  0.5110787  0.4905388

 Al 
  0.9844562  0.7564576  0.7448258

 Al 
  0.2672764  0.4884028  0.7551792

 Al 
  0.2463678  0.7305480  0.4937342

 Al 
  0.4987884  0.4923222  0.0110960

 Al 
  0.5132716  0.7512376  0.2320999

 Al 
  0.7634944  0.4990372  0.2463257

 Al 
  0.7594847  0.7637295  0.9963170

 Al 
  0.4909064  0.0015890  0.4914856

 Al 
  0.5085961  0.2495904  0.7529491

 Al 
  0.7554973  0.0167281  0.7586134

 Al 
  0.7619697  0.2542424  0.4958839

 Al 
  0.5079909  0.4716276  0.4953332

 Al 
  0.5023279  0.7498688  0.7402084

 Al 
  0.7406032  0.4866467  0.7515915

 Al 
  0.7293834  0.7713306  0.4946587

