32 
charge = 0 
 Al 
  0.9937528  0.0234394  0.0016769

 Al 
  0.0104846  0.2423977  0.2510482

 Al 
  0.2494010  0.9978640  0.2581333

 Al 
  0.2532833  0.2306841  0.0078004

 Al 
  0.4888458  0.9890216  0.9983293

 Al 
  0.4991349  0.2516088  0.2453084

 Al 
  0.7518081  0.0171031  0.2355713

 Al 
  0.7328164  0.2566593  0.9972254

 Al 
  0.0149275  0.4896292  0.0061519

 Al 
  0.0022338  0.7609858  0.2524083

 Al 
  0.2585243  0.5076531  0.2407851

 Al 
  0.2425721  0.7497525  0.9984803

 Al 
  0.9792275  0.0036793  0.5207762

 Al 
  0.0031236  0.2590429  0.7560059

 Al 
  0.2414930  0.9915487  0.7597495

 Al 
  0.2483899  0.2362655  0.5235372

 Al 
  0.9963269  0.5093139  0.4924459

 Al 
  0.9854067  0.7551346  0.7427813

 Al 
  0.2694149  0.4887889  0.7565380

 Al 
  0.2468059  0.7324439  0.4934013

 Al 
  0.4968764  0.4889127  0.0099859

 Al 
  0.5139560  0.7503638  0.2331791

 Al 
  0.7662702  0.5019157  0.2464779

 Al 
  0.7565999  0.7624511  0.9950213

 Al 
  0.4870477  0.0042238  0.4924682

 Al 
  0.5080008  0.2480632  0.7525172

 Al 
  0.7559279  0.0214296  0.7579848

 Al 
  0.7655933  0.2512611  0.4945510

 Al 
  0.5099611  0.4738540  0.4960769

 Al 
  0.5009467  0.7463170  0.7372086

 Al 
  0.7424014  0.4866306  0.7519566

 Al 
  0.7284528  0.7715608  0.4944161

