32 
charge = 0 
 Al 
  0.9906279  0.0163482  0.9930461

 Al 
  0.0059106  0.2383384  0.2508378

 Al 
  0.2501522  0.0048809  0.2640698

 Al 
  0.2520110  0.2363757  0.0101356

 Al 
  0.4814106  0.9976239  0.0001955

 Al 
  0.5002945  0.2486993  0.2416180

 Al 
  0.7454198  0.0243948  0.2329625

 Al 
  0.7402579  0.2595787  0.0037931

 Al 
  0.0157851  0.4818041  0.0071036

 Al 
  0.0060405  0.7637011  0.2535320

 Al 
  0.2597557  0.5063772  0.2514962

 Al 
  0.2405537  0.7486894  0.9907851

 Al 
  0.9890859  0.0004455  0.5204297

 Al 
  0.0016893  0.2614079  0.7567905

 Al 
  0.2414868  0.9875155  0.7548426

 Al 
  0.2490112  0.2353497  0.5272709

 Al 
  0.9933221  0.5043278  0.4979593

 Al 
  0.9881751  0.7507413  0.7391639

 Al 
  0.2725100  0.4902158  0.7592446

 Al 
  0.2489728  0.7379721  0.4936649

 Al 
  0.4932058  0.4828598  0.0061767

 Al 
  0.5142344  0.7480508  0.2365118

 Al 
  0.7714346  0.5085961  0.2462267

 Al 
  0.7498750  0.7584575  0.9916700

 Al 
  0.4795431  0.0102384  0.4958616

 Al 
  0.5051569  0.2431748  0.7509628

 Al 
  0.7550480  0.0304440  0.7564824

 Al 
  0.7720497  0.2445733  0.4916180

 Al 
  0.5137617  0.4806656  0.4974778

 Al 
  0.4973974  0.7385909  0.7317460

 Al 
  0.7477947  0.4886652  0.7526360

 Al 
  0.7280296  0.7709000  0.4936884

