32 
charge = 0 
 Al 
  0.9925486  0.0211202  0.9984518

 Al 
  0.0087619  0.2406750  0.2508292

 Al 
  0.2497339  0.0005359  0.2604537

 Al 
  0.2527994  0.2325652  0.0088164

 Al 
  0.4858250  0.9922021  0.9990879

 Al 
  0.4995508  0.2506089  0.2436983

 Al 
  0.7495013  0.0200795  0.2343820

 Al 
  0.7352520  0.2577509  0.9995384

 Al 
  0.0154250  0.4865390  0.0065888

 Al 
  0.0038129  0.7619808  0.2529392

 Al 
  0.2590689  0.5074068  0.2445894

 Al 
  0.2418036  0.7493924  0.9955534

 Al 
  0.9825132  0.0025209  0.5210571

 Al 
  0.0025382  0.2599166  0.7563277

 Al 
  0.2414175  0.9899931  0.7580714

 Al 
  0.2487612  0.2356257  0.5252488

 Al 
  0.9950658  0.5075776  0.4943369

 Al 
  0.9863720  0.7537040  0.7412541

 Al 
  0.2708851  0.4892518  0.7576556

 Al 
  0.2474469  0.7343498  0.4933333

 Al 
  0.4953901  0.4863435  0.0087360

 Al 
  0.5143025  0.7495372  0.2343188

 Al 
  0.7683951  0.5044032  0.2464618

 Al 
  0.7540939  0.7611071  0.9938444

 Al 
  0.4839488  0.0065257  0.4935436

 Al 
  0.5071432  0.2464135  0.7520123

 Al 
  0.7558846  0.0251238  0.7574588

 Al 
  0.7683456  0.2487080  0.4934199

 Al 
  0.5114895  0.4761707  0.4966598

 Al 
  0.4996745  0.7433246  0.7349290

 Al 
  0.7442441  0.4870984  0.7522388

 Al 
  0.7280073  0.7714519  0.4941649

