32 
charge = 0 
 Al 
  0.9913940  0.0184533  0.9952638

 Al 
  0.0070702  0.2392159  0.2507784

 Al 
  0.2500074  0.0031149  0.2626392

 Al 
  0.2523464  0.2347161  0.0096567

 Al 
  0.4831258  0.9953913  0.9997711

 Al 
  0.4999889  0.2495062  0.2423556

 Al 
  0.7471289  0.0227513  0.2334501

 Al 
  0.7380526  0.2588189  0.0020011

 Al 
  0.0157047  0.4836679  0.0069180

 Al 
  0.0051903  0.7629882  0.2533389

 Al 
  0.2595070  0.5068982  0.2485731

 Al 
  0.2410586  0.7490013  0.9927095

 Al 
  0.9862197  0.0013242  0.5208566

 Al 
  0.0020086  0.2608002  0.7566172

 Al 
  0.2414237  0.9885092  0.7562324

 Al 
  0.2489765  0.2353101  0.5265754

 Al 
  0.9939669  0.5057126  0.4963999

 Al 
  0.9874103  0.7520494  0.7399498

 Al 
  0.2719853  0.4897951  0.7586506

 Al 
  0.2482773  0.7364190  0.4934582

 Al 
  0.4940560  0.4841518  0.0072942

 Al 
  0.5143817  0.7486808  0.2355700

 Al 
  0.7702676  0.5068623  0.2463480

 Al 
  0.7516138  0.7596072  0.9926056

 Al 
  0.4812039  0.0087496  0.4948208

 Al 
  0.5060542  0.2445696  0.7514207

 Al 
  0.7555096  0.0284058  0.7569105

 Al 
  0.7706834  0.2462452  0.4923407

 Al 
  0.5128694  0.4787251  0.4971697

 Al 
  0.4983540  0.7404844  0.7329513

 Al 
  0.7462700  0.4879028  0.7524838

 Al 
  0.7278909  0.7711735  0.4938902

