32 
charge = 0 
 Al 
  0.9908717  0.0170548  0.9937639

 Al 
  0.0062831  0.2386095  0.2508094

 Al 
  0.2501101  0.0043104  0.2636169

 Al 
  0.2521237  0.2358237  0.0099908

 Al 
  0.4819502  0.9969011  0.0000644

 Al 
  0.5001968  0.2489629  0.2418358

 Al 
  0.7459792  0.0238874  0.2331036

 Al 
  0.7395191  0.2593300  0.0032065

 Al 
  0.0157690  0.4823932  0.0070467

 Al 
  0.0057757  0.7634696  0.2534776

 Al 
  0.2596802  0.5065616  0.2505346

 Al 
  0.2407158  0.7487959  0.9914014

 Al 
  0.9881305  0.0007351  0.5205955

 Al 
  0.0017858  0.2612136  0.7567373

 Al 
  0.2414596  0.9878335  0.7553030

 Al 
  0.2490124  0.2353089  0.5270680

 Al 
  0.9935176  0.5047844  0.4974420

 Al 
  0.9879239  0.7511806  0.7394065

 Al 
  0.2723652  0.4900760  0.7590627

 Al 
  0.2487364  0.7374585  0.4935870

 Al 
  0.4934731  0.4832545  0.0065479

 Al 
  0.5143037  0.7482587  0.2361999

 Al 
  0.7710695  0.5080318  0.2462687

 Al 
  0.7504406  0.7588399  0.9919818

 Al 
  0.4800542  0.0097631  0.4955089

 Al 
  0.5054614  0.2436365  0.7511150

 Al 
  0.7552163  0.0298092  0.7566271

 Al 
  0.7716351  0.2451092  0.4918494

 Al 
  0.5134783  0.4800220  0.4973838

 Al 
  0.4977105  0.7391948  0.7321197

 Al 
  0.7472910  0.4883979  0.7525890

 Al 
  0.7279627  0.7709952  0.4937540

