32 
charge = 0 
 Al 
  0.9911279  0.0177578  0.9945027

 Al 
  0.0066705  0.2389015  0.2507896

 Al 
  0.2500619  0.0037214  0.2631404

 Al 
  0.2522350  0.2352693  0.0098312

 Al 
  0.4825219  0.9961549  0.9999220

 Al 
  0.5000941  0.2492315  0.2420821

 Al 
  0.7465484  0.0233380  0.2332669

 Al 
  0.7387827  0.2590763  0.0026088

 Al 
  0.0157418  0.4830145  0.0069848

 Al 
  0.0054923  0.7632320  0.2534144

 Al 
  0.2595973  0.5067361  0.2495594

 Al 
  0.2408841  0.7488998  0.9920425

 Al 
  0.9871739  0.0010272  0.5207378

 Al 
  0.0018935  0.2610106  0.7566804

 Al 
  0.2414398  0.9881652  0.7557658

 Al 
  0.2490000  0.2352953  0.5268365

 Al 
  0.9937330  0.5052473  0.4969222

 Al 
  0.9876689  0.7516175  0.7396688

 Al 
  0.2721907  0.4899349  0.7588647

 Al 
  0.2485038  0.7369400  0.4935176

 Al 
  0.4937565  0.4836852  0.0069217

 Al 
  0.5143520  0.7484679  0.2358868

 Al 
  0.7706809  0.5074526  0.2463096

 Al 
  0.7510198  0.7592236  0.9922937

 Al 
  0.4806086  0.0092656  0.4951624

 Al 
  0.5057609  0.2441018  0.7512673

 Al 
  0.7553710  0.0291297  0.7567695

 Al 
  0.7711784  0.2456673  0.4920907

 Al 
  0.5131813  0.4793735  0.4972798

 Al 
  0.4980298  0.7398272  0.7325219

 Al 
  0.7467823  0.4881442  0.7525382

 Al 
  0.7279157  0.7710868  0.4938209

