32 
charge = 0 
 Al 
  0.9894349  0.0120613  0.9892307

 Al 
  0.0039911  0.2371306  0.2511485

 Al 
  0.2502562  0.0079055  0.2662554

 Al 
  0.2512920  0.2395921  0.0107099

 Al 
  0.4788179  0.0014591  0.0007772

 Al 
  0.5007623  0.2473194  0.2409361

 Al 
  0.7423345  0.0265494  0.2325318

 Al 
  0.7447032  0.2609933  0.0069972

 Al 
  0.0157034  0.4789874  0.0073722

 Al 
  0.0072645  0.7649559  0.2536434

 Al 
  0.2600490  0.5050480  0.2569427

 Al 
  0.2397406  0.7480088  0.9876726

 Al 
  0.9947255  0.9987959  0.5190151

 Al 
  0.0013143  0.2623546  0.7569811

 Al 
  0.2417566  0.9859165  0.7522103

 Al 
  0.2487315  0.2362061  0.5278934

 Al 
  0.9925622  0.5017338  0.5009368

 Al 
  0.9895723  0.7480682  0.7380823

 Al 
  0.2727390  0.4910165  0.7599426

 Al 
  0.2504406  0.7409250  0.4943060

 Al 
  0.4919435  0.4812398  0.0040283

 Al 
  0.5133979  0.7468615  0.2382815

 Al 
  0.7731214  0.5116974  0.2459754

 Al 
  0.7467749  0.7562188  0.9898037

 Al 
  0.4774244  0.0126058  0.4980546

 Al 
  0.5032696  0.2405574  0.7500916

 Al 
  0.7537907  0.0332991  0.7555529

 Al 
  0.7737030  0.2418036  0.4904596

 Al 
  0.5151775  0.4844018  0.4978763

 Al 
  0.4956871  0.7355502  0.7300926

 Al 
  0.7506547  0.4904695  0.7528439

 Al 
  0.7288637  0.7702663  0.4933555

