32 
charge = 0 
 Al 
  0.9891354  0.0106059  0.9881281

 Al 
  0.0034738  0.2368670  0.2513007

 Al 
  0.2502376  0.0087842  0.2667900

 Al 
  0.2510198  0.2406230  0.0107965

 Al 
  0.4781706  0.0025494  0.0008923

 Al 
  0.5008638  0.2469556  0.2409448

 Al 
  0.7414014  0.0269195  0.2325368

 Al 
  0.7461871  0.2614512  0.0079402

 Al 
  0.0156279  0.4783154  0.0074439

 Al 
  0.0075528  0.7653272  0.2536038

 Al 
  0.2600886  0.5045208  0.2586580

 Al 
  0.2395302  0.7477575  0.9868509

 Al 
  0.9965682  0.9982748  0.5184001

 Al 
  0.0012735  0.2625761  0.7569959

 Al 
  0.2418915  0.9854970  0.7513836

 Al 
  0.2485347  0.2367333  0.5278860

 Al 
  0.9924657  0.5009195  0.5018848

 Al 
  0.9899968  0.7471548  0.7378471

 Al 
  0.2725731  0.4912616  0.7600230

 Al 
  0.2509443  0.7418643  0.4945721

 Al 
  0.4916502  0.4809675  0.0033488

 Al 
  0.5129523  0.7464866  0.2388347

 Al 
  0.7735100  0.5126392  0.2459061

 Al 
  0.7458269  0.7554960  0.9891689

 Al 
  0.4770717  0.0132172  0.4988144

 Al 
  0.5026137  0.2397579  0.7498193

 Al 
  0.7532907  0.0339043  0.7552077

 Al 
  0.7739493  0.2410425  0.4901589

 Al 
  0.5155636  0.4855935  0.4979469

 Al 
  0.4951859  0.7347520  0.7297535

 Al 
  0.7515432  0.4911415  0.7528860

 Al 
  0.7293042  0.7700448  0.4932751

