32 
charge = 0 
 Al 
  0.9899745  0.0142134  0.9910351

 Al 
  0.0048797  0.2376491  0.2509641

 Al 
  0.2502351  0.0064737  0.2652765

 Al 
  0.2516658  0.2380093  0.0104846

 Al 
  0.4799812  0.9996522  0.0005309

 Al 
  0.5005557  0.2479605  0.2411440

 Al 
  0.7438196  0.0256670  0.2326593

 Al 
  0.7424818  0.2602990  0.0054663

 Al 
  0.0157764  0.4802423  0.0072509

 Al 
  0.0067262  0.7643582  0.2536310

 Al 
  0.2599352  0.5057584  0.2542869

 Al 
  0.2401131  0.7483602  0.9891045

 Al 
  0.9919311  0.9996015  0.5198060

 Al 
  0.0014554  0.2619313  0.7569130

 Al 
  0.2415970  0.9866492  0.7534974

 Al 
  0.2489295  0.2356455  0.5277065

 Al 
  0.9928531  0.5029986  0.4994753

 Al 
  0.9888978  0.7494122  0.7385464

 Al 
  0.2727612  0.4906279  0.7596777

 Al 
  0.2496980  0.7394770  0.4939533

 Al 
  0.4925016  0.4818920  0.0050827

 Al 
  0.5139077  0.7474444  0.2374189

 Al 
  0.7723813  0.5102062  0.2460955

 Al 
  0.7482662  0.7573239  0.9907393

 Al 
  0.4782820  0.0115254  0.4969420

 Al 
  0.5042250  0.2418284  0.7505185

 Al 
  0.7544676  0.0320727  0.7560331

 Al 
  0.7730533  0.2430919  0.4909905

 Al 
  0.5145253  0.4825652  0.4977130

 Al 
  0.4965039  0.7369450  0.7307955

 Al 
  0.7492624  0.4895265  0.7527561

 Al 
  0.7283563  0.7705918  0.4935065

