32 
charge = 0 
 Al 
  0.9897814  0.0134993  0.9904114

 Al 
  0.0045678  0.2374585  0.2510198

 Al 
  0.2502488  0.0069675  0.2656279

 Al 
  0.2515445  0.2385426  0.0105725

 Al 
  0.4795654  0.0002785  0.0006225

 Al 
  0.5006312  0.2477340  0.2410450

 Al 
  0.7433122  0.0260049  0.2325974

 Al 
  0.7432219  0.2605317  0.0059923

 Al 
  0.0157591  0.4797906  0.0072930

 Al 
  0.0069217  0.7645636  0.2536446

 Al 
  0.2599809  0.5055319  0.2551854

 Al 
  0.2399807  0.7482451  0.9885996

 Al 
  0.9928679  0.9993292  0.5195597

 Al 
  0.0013984  0.2620848  0.7569427

 Al 
  0.2416440  0.9863905  0.7530617

 Al 
  0.2488763  0.2358027  0.5277957

 Al 
  0.9927367  0.5025704  0.4999691

 Al 
  0.9891280  0.7489666  0.7383756

 Al 
  0.2727835  0.4907604  0.7597854

 Al 
  0.2499443  0.7399658  0.4940634

 Al 
  0.4922999  0.4816408  0.0047263

 Al 
  0.5137580  0.7472477  0.2377110

 Al 
  0.7726499  0.5107148  0.2460534

 Al 
  0.7477575  0.7569514  0.9904287

 Al 
  0.4779516  0.0119091  0.4973095

 Al 
  0.5039095  0.2413952  0.7503737

 Al 
  0.7542523  0.0325256  0.7558772

 Al 
  0.7733083  0.2426427  0.4908024

 Al 
  0.5147542  0.4831840  0.4977749

 Al 
  0.4962230  0.7364536  0.7305344

 Al 
  0.7497352  0.4898322  0.7527882

 Al 
  0.7285048  0.7704854  0.4934533

