32 
charge = 0 
 Al 
  0.9887716  0.0083585  0.9865997

 Al 
  0.0028056  0.2365774  0.2515742

 Al 
  0.2501634  0.0100168  0.2674249

 Al 
  0.2505619  0.2421464  0.0108386

 Al 
  0.4773662  0.0040283  0.0009975

 Al 
  0.5009591  0.2465163  0.2411787

 Al 
  0.7400673  0.0271410  0.2326754

 Al 
  0.7484469  0.2621504  0.0092520

 Al 
  0.0154844  0.4775432  0.0075429

 Al 
  0.0078969  0.7658569  0.2534800

 Al 
  0.2600923  0.5036347  0.2611900

 Al 
  0.2392666  0.7473504  0.9857965

 Al 
  0.9993280  0.9975075  0.5173420

 Al 
  0.0012871  0.2628088  0.7569675

 Al 
  0.2421427  0.9849661  0.7501832

 Al 
  0.2481387  0.2377729  0.5276781

 Al 
  0.9924645  0.4997215  0.5032845

 Al 
  0.9906094  0.7457341  0.7375934

 Al 
  0.2720905  0.4916069  0.7599983

 Al 
  0.2517177  0.7432578  0.4950163

 Al 
  0.4913222  0.4807856  0.0023538

 Al 
  0.5121170  0.7459396  0.2396404

 Al 
  0.7739518  0.5139981  0.2458294

 Al 
  0.7444372  0.7544230  0.9881751

 Al 
  0.4768601  0.0139783  0.4999950

 Al 
  0.5015866  0.2386293  0.7494245

 Al 
  0.7524714  0.0345156  0.7546384

 Al 
  0.7740508  0.2400290  0.4897827

 Al 
  0.5160858  0.4873484  0.4980038

 Al 
  0.4944941  0.7337322  0.7294305

 Al 
  0.7528315  0.4922194  0.7529256

 Al 
  0.7301285  0.7697069  0.4931872

