32 
charge = 0 
 Al 
  0.9882766  0.0025197  0.9834142

 Al 
  0.0016930  0.2363200  0.2524479

 Al 
  0.2497921  0.0126726  0.2681810

 Al 
  0.2491671  0.2457329  0.0105428

 Al 
  0.4761126  0.0069044  0.0009393

 Al 
  0.5008712  0.2460757  0.2428122

 Al 
  0.7371170  0.0259665  0.2336060

 Al 
  0.7541075  0.2639350  0.0119326

 Al 
  0.0150698  0.4768712  0.0077608

 Al 
  0.0083944  0.7670400  0.2528575

 Al 
  0.2597916  0.5009504  0.2672788

 Al 
  0.2388904  0.7461834  0.9840874

 Al 
  0.0060170  0.9956982  0.5141144

 Al 
  0.0016682  0.2628026  0.7566606

 Al 
  0.2430115  0.9841629  0.7474840

 Al 
  0.2467118  0.2415611  0.5261905

 Al 
  0.9931761  0.4968714  0.5065851

 Al 
  0.9920103  0.7419657  0.7374004

 Al 
  0.2697305  0.4923420  0.7591889

 Al 
  0.2536743  0.7465893  0.4962687

 Al 
  0.4910834  0.4813809  0.0000532

 Al 
  0.5092260  0.7447107  0.2414942

 Al 
  0.7743775  0.5171031  0.2458381

 Al 
  0.7410834  0.7518650  0.9855106

 Al 
  0.4778773  0.0150945  0.5030184

 Al 
  0.4988095  0.2363311  0.7485706

 Al 
  0.7501931  0.0345812  0.7529590

 Al 
  0.7730434  0.2381503  0.4892592

 Al 
  0.5171613  0.4914522  0.4979333

 Al 
  0.4931241  0.7321086  0.7295493

 Al 
  0.7557435  0.4951611  0.7528947

 Al 
  0.7329934  0.7689025  0.4931637

