32 
charge = 0 
 Al 
  0.9886701  0.0075850  0.9861170

 Al 
  0.0026088  0.2365056  0.2516769

 Al 
  0.2501262  0.0104104  0.2675944

 Al 
  0.2503935  0.2426514  0.0108299

 Al 
  0.4771373  0.0044849  0.0010148

 Al 
  0.5009740  0.2463999  0.2413160

 Al 
  0.7396367  0.0271237  0.2327558

 Al 
  0.7492154  0.2623892  0.0096654

 Al 
  0.0154312  0.4773489  0.0075739

 Al 
  0.0079922  0.7660277  0.2534206

 Al 
  0.2600775  0.5033105  0.2620341

 Al 
  0.2391924  0.7472043  0.9854908

 Al 
  0.0002549  0.9972526  0.5169497

 Al 
  0.0013118  0.2628570  0.7569452

 Al 
  0.2422405  0.9848151  0.7497909

 Al 
  0.2479791  0.2381899  0.5275556

 Al 
  0.9925041  0.4993231  0.5037486

 Al 
  0.9908086  0.7452416  0.7375328

 Al 
  0.2718640  0.4917170  0.7599488

 Al 
  0.2519813  0.7437218  0.4951772

 Al 
  0.4912430  0.4807831  0.0020259

 Al 
  0.5117903  0.7457613  0.2399052

 Al 
  0.7740632  0.5144424  0.2458121

 Al 
  0.7439755  0.7540666  0.9878298

 Al 
  0.4768749  0.0141936  0.5004010

 Al 
  0.5012277  0.2382716  0.7492971

 Al 
  0.7521793  0.0346418  0.7544317

 Al 
  0.7740149  0.2397220  0.4896775

 Al 
  0.5162480  0.4879288  0.4980100

 Al 
  0.4942775  0.7334365  0.7293723

 Al 
  0.7532523  0.4926006  0.7529318

 Al 
  0.7304515  0.7695943  0.4931674

