32 
charge = 0 
 Al 
  0.9882295  0.9975484  0.9813338

 Al 
  0.0012574  0.2364660  0.2533303

 Al 
  0.2494060  0.0145079  0.2680697

 Al 
  0.2478120  0.2484172  0.0099884

 Al 
  0.4756819  0.0085491  0.0006373

 Al 
  0.5005012  0.2463962  0.2450262

 Al 
  0.7350441  0.0234357  0.2348163

 Al 
  0.7586605  0.2653891  0.0135723

 Al 
  0.0147480  0.4775296  0.0079241

 Al 
  0.0085565  0.7678927  0.2520779

 Al 
  0.2592260  0.4983021  0.2720769

 Al 
  0.2388359  0.7451030  0.9834971

 Al 
  0.0111839  0.9943443  0.5110155

 Al 
  0.0022152  0.2621615  0.7562225

 Al 
  0.2439397  0.9839921  0.7456277

 Al 
  0.2452539  0.2456636  0.5240854

 Al 
  0.9943666  0.4946438  0.5090453

 Al 
  0.9931031  0.7386924  0.7375922

 Al 
  0.2667838  0.4928518  0.7578635

 Al 
  0.2552671  0.7491609  0.4973541

 Al 
  0.4914101  0.4827051  0.9983503

 Al 
  0.5061507  0.7438741  0.2428642

 Al 
  0.7741535  0.5194013  0.2460918

 Al 
  0.7383434  0.7499047  0.9831630

 Al 
  0.4800059  0.0153223  0.5054478

 Al 
  0.4963195  0.2350688  0.7480533

 Al 
  0.7482117  0.0333733  0.7513576

 Al 
  0.7711759  0.2371826  0.4892208

 Al 
  0.5179075  0.4945089  0.4977377

 Al 
  0.4923618  0.7316049  0.7304787

 Al 
  0.7578115  0.4976932  0.7527387

 Al 
  0.7360749  0.7683110  0.4933407

