32 
charge = 0 
 Al 
  0.9884449  0.9919831  0.9794441

 Al 
  0.0011126  0.2368880  0.2544391

 Al 
  0.2490335  0.0162640  0.2673420

 Al 
  0.2462143  0.2510915  0.0091679

 Al 
  0.4756584  0.0098126  0.0001386

 Al 
  0.4998874  0.2473578  0.2480756

 Al 
  0.7330578  0.0194186  0.2364202

 Al 
  0.7634399  0.2668878  0.0148990

 Al 
  0.0144448  0.4793364  0.0081085

 Al 
  0.0085936  0.7686983  0.2509876

 Al 
  0.2583078  0.4950485  0.2771373

 Al 
  0.2389993  0.7438518  0.9835021

 Al 
  0.0164299  0.9930239  0.5073425

 Al 
  0.0028984  0.2608188  0.7556334

 Al 
  0.2451092  0.9842347  0.7439780

 Al 
  0.2435721  0.2508081  0.5210485

 Al 
  0.9960992  0.4922826  0.5114289

 Al 
  0.9943406  0.7350391  0.7380711

 Al 
  0.2627914  0.4933877  0.7559044

 Al 
  0.2569811  0.7517969  0.4985236

 Al 
  0.4921873  0.4847322  0.9966388

 Al 
  0.5022363  0.7431340  0.2442416

 Al 
  0.7734518  0.5217068  0.2466289

 Al 
  0.7352928  0.7479110  0.9805034

 Al 
  0.4832880  0.0150389  0.5079179

 Al 
  0.4934112  0.2343448  0.7477130

 Al 
  0.7460249  0.0310554  0.7494592

 Al 
  0.7683642  0.2366083  0.4895055

 Al 
  0.5186835  0.4975657  0.4974692

 Al 
  0.4918494  0.7317249  0.7321865

 Al 
  0.7597458  0.5004158  0.7524405

 Al 
  0.7400488  0.7677293  0.4937033

