32 
charge = 0 
 Al 
  0.9882518  0.9964705  0.9809353

 Al 
  0.0012054  0.2365279  0.2535357

 Al 
  0.2493255  0.0148706  0.2679744

 Al 
  0.2475063  0.2489617  0.0098436

 Al 
  0.4756435  0.0088362  0.0005520

 Al 
  0.5003960  0.2465373  0.2455770

 Al 
  0.7346344  0.0227439  0.2351109

 Al 
  0.7596146  0.2656935  0.0138681

 Al 
  0.0146837  0.4777957  0.0079588

 Al 
  0.0085726  0.7680622  0.2518836

 Al 
  0.2590713  0.4976919  0.2730818

 Al 
  0.2388508  0.7448629  0.9834476

 Al 
  0.0122444  0.9940721  0.5103163

 Al 
  0.0023464  0.2619524  0.7561148

 Al 
  0.2441575  0.9840057  0.7452737

 Al 
  0.2449272  0.2466252  0.5235483

 Al 
  0.9946748  0.4941773  0.5095391

 Al 
  0.9933382  0.7379808  0.7376652

 Al 
  0.2660598  0.4929558  0.7575194

 Al 
  0.2556049  0.7496906  0.4975868

 Al 
  0.4915314  0.4830602  0.9980050

 Al 
  0.5054267  0.7437144  0.2431427

 Al 
  0.7740508  0.5198678  0.2461759

 Al 
  0.7377518  0.7495025  0.9826481

 Al 
  0.4805777  0.0153074  0.5059490

 Al 
  0.4957651  0.2348720  0.7479667

 Al 
  0.7477835  0.0329959  0.7509950

 Al 
  0.7706834  0.2370328  0.4892505

 Al 
  0.5180610  0.4951302  0.4976882

 Al 
  0.4922368  0.7315764  0.7307584

 Al 
  0.7582174  0.4982352  0.7526905

 Al 
  0.7368051  0.7681922  0.4933988

