32 
charge = 0 
 Al 
  0.9882184  0.9986016  0.9817385

 Al 
  0.0013205  0.2364140  0.2531347

 Al 
  0.2494864  0.0141441  0.2681390

 Al 
  0.2481078  0.2478739  0.0101220

 Al 
  0.4757376  0.0082471  0.0007153

 Al 
  0.5005965  0.2462824  0.2445102

 Al 
  0.7354574  0.0240644  0.2345379

 Al 
  0.7577174  0.2650884  0.0132642

 Al 
  0.0148124  0.4773093  0.0078907

 Al 
  0.0085342  0.7677231  0.2522586

 Al 
  0.2593671  0.4988862  0.2710831

 Al 
  0.2388310  0.7453356  0.9835701

 Al 
  0.0101282  0.9946178  0.5116900

 Al 
  0.0020915  0.2623422  0.7563239

 Al 
  0.2437317  0.9839958  0.7459903

 Al 
  0.2455708  0.2447465  0.5245842

 Al 
  0.9940820  0.4951042  0.5085503

 Al 
  0.9928741  0.7393879  0.7375303

 Al 
  0.2674645  0.4927491  0.7581828

 Al 
  0.2549342  0.7486337  0.4971264

 Al 
  0.4913086  0.4823796  0.9986956

 Al 
  0.5068388  0.7440362  0.2425858

 Al 
  0.7742352  0.5189347  0.2460200

 Al 
  0.7389213  0.7503057  0.9836642

 Al 
  0.4794825  0.0153161  0.5049478

 Al 
  0.4968554  0.2352866  0.7481461

 Al 
  0.7486300  0.0337050  0.7517054

 Al 
  0.7716289  0.2373484  0.4892035

 Al 
  0.5177565  0.4938902  0.4977848

 Al 
  0.4924979  0.7316581  0.7302299

 Al 
  0.7574019  0.4971610  0.7527808

 Al 
  0.7353807  0.7684298  0.4932912

