32 
charge = 0 
 Al 
  0.9890810  0.9844872  0.9774590

 Al 
  0.0012821  0.2378595  0.2561581

 Al 
  0.2488491  0.0181909  0.2654089

 Al 
  0.2440597  0.2541619  0.0078016

 Al 
  0.4763069  0.0107569  0.9992859

 Al 
  0.4988911  0.2495743  0.2529182

 Al 
  0.7308475  0.0123484  0.2388310

 Al 
  0.7692070  0.2685189  0.0159138

 Al 
  0.0141379  0.4835280  0.0083795

 Al 
  0.0085355  0.7694557  0.2491671

 Al 
  0.2565727  0.4903693  0.2833672

 Al 
  0.2396008  0.7421699  0.9844810

 Al 
  0.0225075  0.9916514  0.5022586

 Al 
  0.0037399  0.2578783  0.7547572

 Al 
  0.2468120  0.9852681  0.7425090

 Al 
  0.2414979  0.2581729  0.5159918

 Al 
  0.9988676  0.4892815  0.5138817

 Al 
  0.9962502  0.7303277  0.7391194

 Al 
  0.2565145  0.4941971  0.7526348

 Al 
  0.2591741  0.7548723  0.4999381

 Al 
  0.4937874  0.4881132  0.9946042

 Al 
  0.4962762  0.7424645  0.2458913

 Al 
  0.7718009  0.5243948  0.2478330

 Al 
  0.7311470  0.7456203  0.9769863

 Al 
  0.4889003  0.0138619  0.5106418

 Al 
  0.4893112  0.2346208  0.7477117

 Al 
  0.7431748  0.0265234  0.7468455

 Al 
  0.7636058  0.2366776  0.4903817

 Al 
  0.5197564  0.5011423  0.4971338

 Al 
  0.4916823  0.7329006  0.7354822

 Al 
  0.7616541  0.5035877  0.7517809

 Al 
  0.7461685  0.7670227  0.4944471

