32 
charge = 0 
 Al 
  0.9895203  0.9809948  0.9767648

 Al 
  0.0014517  0.2385365  0.2570912

 Al 
  0.2490199  0.0188481  0.2640005

 Al 
  0.2430994  0.2553413  0.0070294

 Al 
  0.4769615  0.0108670  0.9988218

 Al 
  0.4984221  0.2510482  0.2554898

 Al 
  0.7300307  0.0082979  0.2400290

 Al 
  0.7715002  0.2689978  0.0160103

 Al 
  0.0140389  0.4864029  0.0085144

 Al 
  0.0085144  0.7695770  0.2481486

 Al 
  0.2554799  0.4881887  0.2858732

 Al 
  0.2401106  0.7414150  0.9854129

 Al 
  0.0247896  0.9912566  0.4999059

 Al 
  0.0040369  0.2558735  0.7543352

 Al 
  0.2476251  0.9861306  0.7422269

 Al 
  0.2407529  0.2615799  0.5132493

 Al 
  0.0002723  0.4879944  0.5145649

 Al 
  0.9973652  0.7283451  0.7398087

 Al 
  0.2532300  0.4946822  0.7508490

 Al 
  0.2601332  0.7560022  0.5004789

 Al 
  0.4947577  0.4899423  0.9937751

 Al 
  0.4931464  0.7423246  0.2465769

 Al 
  0.7706599  0.5254220  0.2486671

 Al 
  0.7291953  0.7447998  0.9754443

 Al 
  0.4920375  0.0128966  0.5115316

 Al 
  0.4873038  0.2354512  0.7479506

 Al 
  0.7419002  0.0237166  0.7456537

 Al 
  0.7609537  0.2371764  0.4910264

 Al 
  0.5203010  0.5025803  0.4970521

 Al 
  0.4918507  0.7339426  0.7374771

 Al 
  0.7621417  0.5046718  0.7513056

 Al 
  0.7493948  0.7666947  0.4949371

