32 
charge = 0 
 Al 
  0.9894089  0.9818041  0.9769096

 Al 
  0.0014096  0.2383620  0.2568648

 Al 
  0.2489567  0.0187157  0.2643681

 Al 
  0.2433172  0.2550864  0.0072187

 Al 
  0.4767809  0.0108646  0.9989332

 Al 
  0.4985273  0.2506745  0.2548723

 Al 
  0.7302052  0.0092904  0.2397480

 Al 
  0.7710002  0.2689112  0.0160165

 Al 
  0.0140587  0.4856653  0.0084823

 Al 
  0.0085169  0.7695696  0.2483961

 Al 
  0.2557559  0.4886850  0.2853287

 Al 
  0.2399720  0.7415858  0.9851604

 Al 
  0.0243045  0.9913284  0.5004468

 Al 
  0.0039763  0.2563883  0.7544329

 Al 
  0.2474370  0.9859005  0.7422615

 Al 
  0.2409039  0.2608039  0.5139077

 Al 
  0.9999443  0.4882815  0.5144448

 Al 
  0.9970868  0.7287832  0.7396329

 Al 
  0.2540147  0.4945597  0.7512796

 Al 
  0.2599166  0.7557658  0.5003638

 Al 
  0.4945188  0.4895018  0.9939595

 Al 
  0.4939001  0.7423432  0.2464234

 Al 
  0.7709532  0.5252017  0.2484518

 Al 
  0.7296483  0.7449693  0.9757908

 Al 
  0.4912739  0.0131541  0.5113571

 Al 
  0.4877766  0.2352025  0.7478776

 Al 
  0.7421922  0.0244208  0.7459259

 Al 
  0.7615997  0.2370229  0.4908594

 Al 
  0.5201710  0.5022623  0.4970620

 Al 
  0.4917937  0.7336642  0.7369821

 Al 
  0.7620613  0.5044565  0.7514306

 Al 
  0.7486189  0.7667727  0.4948121

