32 
charge = 0 
 Al 
  0.9897443  0.9794985  0.9765272

 Al 
  0.0015296  0.2388978  0.2575281

 Al 
  0.2491869  0.0190498  0.2632407

 Al 
  0.2427046  0.2557782  0.0066556

 Al 
  0.4773501  0.0108287  0.9986053

 Al 
  0.4982377  0.2518019  0.2566754

 Al 
  0.7297411  0.0063549  0.2405549

 Al 
  0.7723628  0.2691043  0.0159460

 Al 
  0.0140030  0.4879090  0.0085751

 Al 
  0.0085194  0.7695436  0.2476672

 Al 
  0.2549218  0.4873026  0.2867964

 Al 
  0.2404064  0.7411069  0.9859512

 Al 
  0.0255977  0.9911650  0.4989171

 Al 
  0.0041285  0.2548166  0.7541545

 Al 
  0.2479729  0.9866133  0.7422269

 Al 
  0.2405277  0.2629734  0.5119932

 Al 
  0.0008799  0.4874895  0.5147084

 Al 
  0.9979271  0.7275816  0.7401614

 Al 
  0.2517413  0.4949334  0.7500186

 Al 
  0.2605255  0.7563858  0.5006695

 Al 
  0.4952280  0.4907888  0.9934521

 Al 
  0.4916972  0.7423160  0.2468479

 Al 
  0.7700572  0.5257933  0.2491065

 Al 
  0.7283612  0.7445287  0.9748292

 Al 
  0.4935164  0.0123546  0.5117890

 Al 
  0.4864165  0.2360242  0.7481201

 Al 
  0.7413705  0.0223095  0.7451648

 Al 
  0.7596988  0.2375377  0.4913680

 Al 
  0.5205473  0.5031434  0.4970534

 Al 
  0.4919868  0.7345305  0.7384535

 Al 
  0.7622234  0.5049936  0.7510457

 Al 
  0.7508898  0.7665437  0.4951921

