32 
charge = 0 
 Al 
  0.9906539  0.9748503  0.9761559

 Al 
  0.0016831  0.2405153  0.2590936

 Al 
  0.2504072  0.0190647  0.2597743

 Al 
  0.2415660  0.2567435  0.0051916

 Al 
  0.4793389  0.0101802  0.9978293

 Al 
  0.4978801  0.2549131  0.2608844

 Al 
  0.7292436  0.9989741  0.2422628

 Al 
  0.7742513  0.2686983  0.0150537

 Al 
  0.0138619  0.4944483  0.0087929

 Al 
  0.0086815  0.7687689  0.2459173

 Al 
  0.2525494  0.4852371  0.2883917

 Al 
  0.2419472  0.7402777  0.9885822

 Al 
  0.0269541  0.9913903  0.4960212

 Al 
  0.0041644  0.2501510  0.7536261

 Al 
  0.2490199  0.9888954  0.7430078

 Al 
  0.2406391  0.2664596  0.5077793

 Al 
  0.0026236  0.4863398  0.5140859

 Al 
  0.0002772  0.7259034  0.7416403

 Al 
  0.2467031  0.4960670  0.7470781

 Al 
  0.2615960  0.7568685  0.5009591

 Al 
  0.4969915  0.4937775  0.9926526

 Al 
  0.4864054  0.7426291  0.2475657

 Al 
  0.7673828  0.5264937  0.2510086

 Al 
  0.7258576  0.7442589  0.9733528

 Al 
  0.4989159  0.0097644  0.5117210

 Al 
  0.4835008  0.2393087  0.7490397

 Al 
  0.7398384  0.0165289  0.7438580

 Al 
  0.7549948  0.2397035  0.4928914

 Al 
  0.5213789  0.5046545  0.4974172

 Al 
  0.4927689  0.7372902  0.7422157

 Al 
  0.7615663  0.5049403  0.7498193

 Al 
  0.7563561  0.7659039  0.4963331

