32 
charge = 0 
 Al 
  0.9898569  0.9788092  0.9764319

 Al 
  0.0015643  0.2390835  0.2577385

 Al 
  0.2492896  0.0191191  0.2628471

 Al 
  0.2425264  0.2559626  0.0064712

 Al 
  0.4775593  0.0107878  0.9985013

 Al 
  0.4981597  0.2521818  0.2572435

 Al 
  0.7296235  0.0054044  0.2408012

 Al 
  0.7727278  0.2691253  0.0158878

 Al 
  0.0139869  0.4886788  0.0086048

 Al 
  0.0085256  0.7695040  0.2474333

 Al 
  0.2546396  0.4869140  0.2871776

 Al 
  0.2405648  0.7409683  0.9862371

 Al 
  0.0259245  0.9911428  0.4984679

 Al 
  0.0041619  0.2542758  0.7540728

 Al 
  0.2481325  0.9868682  0.7422590

 Al 
  0.2404534  0.2635909  0.5113967

 Al 
  0.0011584  0.4872704  0.5147319

 Al 
  0.9982092  0.7272548  0.7403408

 Al 
  0.2510358  0.4950621  0.7496201

 Al 
  0.2607000  0.7565343  0.5007463

 Al 
  0.4954569  0.4911947  0.9933110

 Al 
  0.4909980  0.7423246  0.2469680

 Al 
  0.7697490  0.5259467  0.2493305

 Al 
  0.7279776  0.7444273  0.9745607

 Al 
  0.4942330  0.0120699  0.5118744

 Al 
  0.4860007  0.2363472  0.7482154

 Al 
  0.7411304  0.0216054  0.7449458

 Al 
  0.7590874  0.2377457  0.4915437

 Al 
  0.5206636  0.5033909  0.4970670

 Al 
  0.4920660  0.7348386  0.7389350

 Al 
  0.7622246  0.5051025  0.7509096

 Al 
  0.7516113  0.7664695  0.4953233

