32 
charge = 0 
 Al 
  0.9916514  0.9716549  0.9765878

 Al 
  0.0014009  0.2425895  0.2604487

 Al 
  0.2526249  0.0177825  0.2552089

 Al 
  0.2408581  0.2568214  0.0035766

 Al 
  0.4823214  0.0088622  0.9971066

 Al 
  0.4982080  0.2584600  0.2647060

 Al 
  0.7297102  0.9913482  0.2435795

 Al 
  0.7741201  0.2669274  0.0131615

 Al 
  0.0134597  0.5024256  0.0090132

 Al 
  0.0091604  0.7667479  0.2443963

 Al 
  0.2496733  0.4857755  0.2865168

 Al 
  0.2444223  0.7400339  0.9922454

 Al 
  0.0257401  0.9924818  0.4943245

 Al 
  0.0036855  0.2442614  0.7532894

 Al 
  0.2496795  0.9919398  0.7449210

 Al 
  0.2425672  0.2665957  0.5046730

 Al 
  0.0032127  0.4865663  0.5115898

 Al 
  0.0030580  0.7262215  0.7433184

 Al 
  0.2426674  0.4975719  0.7444891

 Al 
  0.2619573  0.7559044  0.5006175

 Al 
  0.4986919  0.4964321  0.9925115

 Al 
  0.4811903  0.7434756  0.2478702

 Al 
  0.7638657  0.5261089  0.2532622

 Al 
  0.7245545  0.7451450  0.9734332

 Al 
  0.5039788  0.0061680  0.5099822

 Al 
  0.4813264  0.2444780  0.7502822

 Al 
  0.7390265  0.0097904  0.7434409

 Al 
  0.7501943  0.2432429  0.4949161

 Al 
  0.5219618  0.5055567  0.4985459

 Al 
  0.4938109  0.7409633  0.7459853

 Al 
  0.7593597  0.5027944  0.7481548

 Al 
  0.7618620  0.7648730  0.4978429

