32 
charge = 0 
 Al 
  0.9910103  0.9735149  0.9762227

 Al 
  0.0016410  0.2412257  0.2596233

 Al 
  0.2511126  0.0187466  0.2582248

 Al 
  0.2412665  0.2568573  0.0046186

 Al 
  0.4803116  0.0097631  0.9975583

 Al 
  0.4979147  0.2561680  0.2623360

 Al 
  0.7293018  0.9962056  0.2427875

 Al 
  0.7744233  0.2682058  0.0144683

 Al 
  0.0137642  0.4972217  0.0088733

 Al 
  0.0088189  0.7681798  0.2453195

 Al 
  0.2515507  0.4851072  0.2881244

 Al 
  0.2427343  0.7401156  0.9898099

 Al 
  0.0267883  0.9916984  0.4952713

 Al 
  0.0040468  0.2481276  0.7534850

 Al 
  0.2493033  0.9899287  0.7435931

 Al 
  0.2411267  0.2669187  0.5064960

 Al 
  0.0029900  0.4862556  0.5133781

 Al 
  0.0012537  0.7257896  0.7422392

 Al 
  0.2450993  0.4965769  0.7460806

 Al 
  0.2618175  0.7566680  0.5008985

 Al 
  0.4976276  0.4947936  0.9925239

 Al 
  0.4844847  0.7428815  0.2477192

 Al 
  0.7661985  0.5264739  0.2518031

 Al 
  0.7252252  0.7444582  0.9731894

 Al 
  0.5008230  0.0085639  0.5112692

 Al 
  0.4826085  0.2409943  0.7494691

 Al 
  0.7394572  0.0141676  0.7436030

 Al 
  0.7532474  0.2408470  0.4935684

 Al 
  0.5216326  0.5050282  0.4977340

 Al 
  0.4931352  0.7385352  0.7436117

 Al 
  0.7609264  0.5043884  0.7492575

 Al 
  0.7583585  0.7655908  0.4968405

