32 
charge = 0 
 Al 
  0.9920709  0.9707564  0.9769764

 Al 
  0.0011348  0.2435214  0.2609005

 Al 
  0.2537288  0.0169249  0.2531162

 Al 
  0.2406477  0.2566828  0.0028909

 Al 
  0.4837954  0.0082038  0.9968331

 Al 
  0.4985384  0.2599673  0.2660957

 Al 
  0.7301631  0.9882531  0.2440139

 Al 
  0.7735780  0.2658668  0.0121677

 Al 
  0.0131491  0.5059118  0.0090961

 Al 
  0.0094414  0.7655920  0.2439112

 Al 
  0.2484073  0.4867494  0.2847953

 Al 
  0.2457032  0.7401144  0.9939496

 Al 
  0.0246485  0.9931093  0.4939161

 Al 
  0.0033649  0.2416304  0.7531818

 Al 
  0.2498552  0.9933271  0.7459210

 Al 
  0.2438394  0.2657084  0.5037671

 Al 
  0.0030902  0.4870464  0.5101443

 Al 
  0.0042436  0.7268712  0.7440102

 Al 
  0.2413544  0.4982575  0.7435820

 Al 
  0.2618781  0.7552027  0.5003552

 Al 
  0.4993292  0.4973850  0.9926303

 Al 
  0.4791483  0.7439397  0.2479110

 Al 
  0.7622123  0.5256782  0.2542176

 Al 
  0.7244221  0.7457638  0.9739283

 Al 
  0.5058623  0.0044614  0.5088770

 Al 
  0.4807015  0.2469952  0.7508205

 Al 
  0.7389003  0.0068635  0.7435016

 Al 
  0.7482600  0.2449866  0.4958863

 Al 
  0.5220756  0.5058660  0.4992240

 Al 
  0.4942354  0.7426526  0.7474259

 Al 
  0.7581184  0.5014319  0.7473974

 Al 
  0.7640995  0.7642790  0.4985545

