32 
charge = 0 
 Al 
  0.9912591  0.9727179  0.9763291

 Al 
  0.0015729  0.2417430  0.2599624

 Al 
  0.2516658  0.0184298  0.2570900

 Al 
  0.2410920  0.2568747  0.0042164

 Al 
  0.4810517  0.0094339  0.9973788

 Al 
  0.4979951  0.2570516  0.2632889

 Al 
  0.7294156  0.9943072  0.2431154

 Al 
  0.7743911  0.2677664  0.0139981

 Al 
  0.0136689  0.4992092  0.0089290

 Al 
  0.0089364  0.7676786  0.2449371

 Al 
  0.2508341  0.4852346  0.2876640

 Al 
  0.2433469  0.7400537  0.9907220

 Al 
  0.0264863  0.9919707  0.4948505

 Al 
  0.0039280  0.2466598  0.7534033

 Al 
  0.2494678  0.9906873  0.7440708

 Al 
  0.2416031  0.2669583  0.5057200

 Al 
  0.0031397  0.4863101  0.5127568

 Al 
  0.0019467  0.7258663  0.7426588

 Al 
  0.2440919  0.4969519  0.7454346

 Al 
  0.2619103  0.7564267  0.5008118

 Al 
  0.4980521  0.4954557  0.9924880

 Al 
  0.4831865  0.7430919  0.2477934

 Al 
  0.7653247  0.5263799  0.2523650

 Al 
  0.7248960  0.7446810  0.9732055

 Al 
  0.5020853  0.0076704  0.5108373

 Al 
  0.4820640  0.2422813  0.7497797

 Al 
  0.7392542  0.0124907  0.7434991

 Al 
  0.7520519  0.2417281  0.4940708

 Al 
  0.5217799  0.5052485  0.4980137

 Al 
  0.4933976  0.7394485  0.7445535

 Al 
  0.7603770  0.5038538  0.7488416

 Al 
  0.7597272  0.7653383  0.4972155

