32 
charge = 0 
 Al 
  0.9929669  0.9695622  0.9781545

 Al 
  0.0003379  0.2455336  0.2616219

 Al 
  0.2561767  0.0146664  0.2485236

 Al 
  0.2402752  0.2562237  0.0014665

 Al 
  0.4872556  0.0067286  0.9962935

 Al 
  0.4995075  0.2631157  0.2686018

 Al 
  0.7315504  0.9819613  0.2447639

 Al 
  0.7717353  0.2631813  0.0098275

 Al 
  0.0121541  0.5132493  0.0092099

 Al 
  0.0101443  0.7627147  0.2432528

 Al 
  0.2457118  0.4898693  0.2797807

 Al 
  0.2487983  0.7406044  0.9976833

 Al 
  0.0215893  0.9946191  0.4934422

 Al 
  0.0025283  0.2359995  0.7529355

 Al 
  0.2500990  0.9963282  0.7482105

 Al 
  0.2471709  0.2624920  0.5024293

 Al 
  0.0022536  0.4886392  0.5066098

 Al 
  0.0066618  0.7290085  0.7453740

 Al 
  0.2392060  0.4997240  0.7420165

 Al 
  0.2612816  0.7534107  0.4997178

 Al 
  0.5005099  0.4991263  0.9931736

 Al 
  0.4752153  0.7450559  0.2479159

 Al 
  0.7584550  0.5243651  0.2561705

 Al 
  0.7248998  0.7473380  0.9757227

 Al 
  0.5093770  0.0005928  0.5060356

 Al 
  0.4799144  0.2526768  0.7519281

 Al 
  0.7389906  0.0006324  0.7439471

 Al 
  0.7443827  0.2489320  0.4981399

 Al 
  0.5219940  0.5065900  0.5009467

 Al 
  0.4950188  0.7463826  0.7501250

 Al 
  0.7551643  0.4980199  0.7457960

 Al 
  0.7686723  0.7626603  0.5001794

