32 
charge = 0 
 Al 
  0.9932652  0.9693666  0.9786520

 Al 
  0.0000136  0.2461920  0.2617816

 Al 
  0.2569749  0.0138236  0.2470014

 Al 
  0.2401626  0.2560467  0.0010173

 Al 
  0.4884783  0.0062410  0.9961289

 Al 
  0.4998874  0.2641181  0.2692750

 Al 
  0.7321308  0.9799936  0.2449631

 Al 
  0.7709470  0.2621888  0.0090144

 Al 
  0.0117123  0.5155846  0.0092186

 Al 
  0.0103968  0.7616715  0.2431649

 Al 
  0.2448431  0.4911415  0.2777907

 Al 
  0.2499208  0.7408594  0.9989072

 Al 
  0.0204124  0.9951488  0.4933815

 Al 
  0.0022165  0.2341815  0.7528340

 Al 
  0.2501522  0.9973046  0.7489802

 Al 
  0.2484122  0.2611121  0.5021323

 Al 
  0.0018328  0.4893062  0.5053562

 Al 
  0.0074006  0.7299106  0.7457737

 Al 
  0.2386788  0.5001931  0.7416130

 Al 
  0.2609537  0.7527684  0.4995087

 Al 
  0.5008378  0.4996188  0.9934372

 Al 
  0.4740793  0.7454507  0.2479048

 Al 
  0.7571581  0.5238293  0.2567695

 Al 
  0.7252859  0.7478986  0.9765210

 Al 
  0.5103794  0.9992661  0.5049837

 Al 
  0.4798191  0.2545926  0.7522722

 Al 
  0.7391280  0.9986077  0.7441661

 Al 
  0.7431946  0.2502549  0.4989332

 Al 
  0.5218467  0.5068808  0.5015816

 Al 
  0.4952280  0.7476288  0.7508898

 Al 
  0.7541434  0.4968021  0.7452935

 Al 
  0.7701092  0.7620118  0.5007487

