32 
charge = 0 
 Al 
  0.9931167  0.9694508  0.9783983

 Al 
  0.0001782  0.2458665  0.2617073

 Al 
  0.2565801  0.0142468  0.2477563

 Al 
  0.2402183  0.2561358  0.0012388

 Al 
  0.4878669  0.0064824  0.9962106

 Al 
  0.4996956  0.2636243  0.2689520

 Al 
  0.7318351  0.9809626  0.2448678

 Al 
  0.7713492  0.2626875  0.0094191

 Al 
  0.0119400  0.5144337  0.0092174

 Al 
  0.0102705  0.7621937  0.2431996

 Al 
  0.2452725  0.4904968  0.2787981

 Al 
  0.2493577  0.7407269  0.9983021

 Al 
  0.0210051  0.9948852  0.4934063

 Al 
  0.0023736  0.2350787  0.7528872

 Al 
  0.2501262  0.9968219  0.7485991

 Al 
  0.2477885  0.2618138  0.5022722

 Al 
  0.0020494  0.4889671  0.5059824

 Al 
  0.0070393  0.7294515  0.7455794

 Al 
  0.2389288  0.4999616  0.7418061

 Al 
  0.2611244  0.7530890  0.4996114

 Al 
  0.5006794  0.4993787  0.9933011

 Al 
  0.4746312  0.7452539  0.2479110

 Al 
  0.7578053  0.5241015  0.2564762

 Al 
  0.7250792  0.7476189  0.9761113

 Al 
  0.5098931  0.9999270  0.5055121

 Al 
  0.4798550  0.2536409  0.7521026

 Al 
  0.7390525  0.9996089  0.7440535

 Al 
  0.7437775  0.2495990  0.4985360

 Al 
  0.5219284  0.5067323  0.5012623

 Al 
  0.4951277  0.7470100  0.7505185

 Al 
  0.7546508  0.4974098  0.7455398

 Al 
  0.7694013  0.7623410  0.5004641

