32 
charge = 0 
 Al 
  0.9936934  0.9692701  0.9794688

 Al 
  0.9995037  0.2471165  0.2619264

 Al 
  0.2580677  0.0125575  0.2448604

 Al 
  0.2400042  0.2557868  0.0004072

 Al 
  0.4902802  0.0055678  0.9959086

 Al 
  0.5004703  0.2654955  0.2700646

 Al 
  0.7330701  0.9773142  0.2452044

 Al 
  0.7696772  0.2606987  0.0078387

 Al 
  0.0109660  0.5187713  0.0091914

 Al 
  0.0107656  0.7601257  0.2431798

 Al 
  0.2436451  0.4931142  0.2747030

 Al 
  0.2515989  0.7413074  0.0006039

 Al 
  0.0186204  0.9959173  0.4933729

 Al 
  0.0017462  0.2316754  0.7526533

 Al 
  0.2502141  0.9986560  0.7500606

 Al 
  0.2502686  0.2589253  0.5018155

 Al 
  0.0011262  0.4903643  0.5035295

 Al 
  0.0083771  0.7313648  0.7462811

 Al 
  0.2380897  0.5008329  0.7411465

 Al 
  0.2603633  0.7518427  0.4992339

 Al 
  0.5012425  0.5002450  0.9938963

 Al 
  0.4726523  0.7460237  0.2478875

 Al 
  0.7552733  0.5229840  0.2575590

 Al 
  0.7260470  0.7487018  0.9778452

 Al 
  0.5116529  0.9973491  0.5034045

 Al 
  0.4798413  0.2573140  0.7527350

 Al 
  0.7394226  0.9957836  0.7445225

 Al 
  0.7416081  0.2521162  0.5001040

 Al 
  0.5215002  0.5073722  0.5025321

 Al 
  0.4954643  0.7493911  0.7518440

 Al 
  0.7526843  0.4950349  0.7446290

 Al 
  0.7720633  0.7609797  0.5015903

