32 
charge = 0 
 Al 
  0.9923642  0.9702626  0.9773118

 Al 
  0.0009059  0.2441810  0.2611740

 Al 
  0.2545270  0.0162405  0.2516212

 Al 
  0.2405178  0.2565504  0.0024170

 Al 
  0.4848881  0.0077261  0.9966499

 Al 
  0.4988206  0.2610131  0.2669893

 Al 
  0.7305567  0.9861393  0.2442849

 Al 
  0.7730682  0.2650438  0.0114264

 Al 
  0.0128756  0.5083461  0.0091443

 Al 
  0.0096592  0.7647035  0.2436365

 Al 
  0.2475187  0.4876343  0.2833337

 Al 
  0.2466672  0.7402282  0.9951686

 Al 
  0.0237402  0.9935845  0.4937070

 Al 
  0.0031100  0.2397753  0.7531063

 Al 
  0.2499517  0.9943122  0.7466561

 Al 
  0.2448505  0.2648309  0.5032486

 Al 
  0.0028959  0.4874907  0.5090404

 Al 
  0.0050592  0.7274689  0.7444768

 Al 
  0.2405574  0.4987414  0.7430127

 Al 
  0.2617457  0.7546495  0.5001522

 Al 
  0.4997451  0.4979989  0.9927664

 Al 
  0.4777882  0.7442899  0.2479221

 Al 
  0.7610106  0.5253020  0.2548748

 Al 
  0.7244666  0.7462502  0.9744109

 Al 
  0.5070912  0.0032226  0.5080083

 Al 
  0.4803624  0.2488243  0.7511930

 Al 
  0.7388768  0.0048116  0.7436068

 Al 
  0.7469482  0.2462576  0.4965992

 Al 
  0.5221004  0.5060863  0.4997512

 Al 
  0.4945139  0.7438629  0.7483701

 Al 
  0.7571841  0.5003737  0.7468653

 Al 
  0.7656317  0.7638013  0.4990718

