32 
charge = 0 
 Al 
  0.9943394  0.9695733  0.9809712

 Al 
  0.9986436  0.2484209  0.2619078

 Al 
  0.2595032  0.0105911  0.2418408

 Al 
  0.2397691  0.2554205  0.9996052

 Al 
  0.4930697  0.0046730  0.9956252

 Al 
  0.5013947  0.2673593  0.2707440

 Al 
  0.7347347  0.9737080  0.2454606

 Al 
  0.7674595  0.2583375  0.0061061

 Al 
  0.0095404  0.5229989  0.0090206

 Al 
  0.0112989  0.7577669  0.2435956

 Al 
  0.2420251  0.4962886  0.2696376

 Al 
  0.2542362  0.7421823  0.0028897

 Al 
  0.0157665  0.9970608  0.4935300

 Al 
  0.0009876  0.2282833  0.7522685

 Al 
  0.2503007  0.0004950  0.7515531

 Al 
  0.2531385  0.2552832  0.5015668

 Al 
  0.9998998  0.4921316  0.5008131

 Al 
  0.0095973  0.7339129  0.7468380

 Al 
  0.2376169  0.5016707  0.7407257

 Al 
  0.2591741  0.7505074  0.4989196

 Al 
  0.5016868  0.5009826  0.9947762

 Al 
  0.4711450  0.7468739  0.2478875

 Al 
  0.7524157  0.5215546  0.2585033

 Al 
  0.7276917  0.7498218  0.9802510

 Al 
  0.5131268  0.9944842  0.5009220

 Al 
  0.4802733  0.2612210  0.7533488

 Al 
  0.7401144  0.9918420  0.7451153

 Al 
  0.7395834  0.2546941  0.5019157

 Al 
  0.5205695  0.5083399  0.5040221

 Al 
  0.4956487  0.7519009  0.7528984

 Al 
  0.7505940  0.4924385  0.7438493

 Al 
  0.7746522  0.7591827  0.5028947

