32 
charge = 0 
 Al 
  0.9949272  0.9703653  0.9826543

 Al 
  0.9977971  0.2494456  0.2615749

 Al 
  0.2604265  0.0088647  0.2395117

 Al 
  0.2395525  0.2551631  0.9990582

 Al 
  0.4955918  0.0040963  0.9954408

 Al 
  0.5022189  0.2687058  0.2706661

 Al 
  0.7364970  0.9710819  0.2455757

 Al 
  0.7651837  0.2561631  0.0046681

 Al 
  0.0078870  0.5259059  0.0086580

 Al 
  0.0116962  0.7557547  0.2444718

 Al 
  0.2408792  0.4991250  0.2648569

 Al 
  0.2566086  0.7431885  0.0044441

 Al 
  0.0131714  0.9980298  0.4938369

 Al 
  0.0002525  0.2258601  0.7517586

 Al 
  0.2504121  0.0018180  0.7526397

 Al 
  0.2556297  0.2518526  0.5015507

 Al 
  0.9987525  0.4938035  0.4985558

 Al 
  0.0103646  0.7365526  0.7470670

 Al 
  0.2376566  0.5022177  0.7406713

 Al 
  0.2577707  0.7494827  0.4987983

 Al 
  0.5019009  0.5013984  0.9957700

 Al 
  0.4707341  0.7475731  0.2479865

 Al 
  0.7499035  0.5201587  0.2589699

 Al 
  0.7296965  0.7505866  0.9828288

 Al 
  0.5138966  0.9920313  0.4986746

 Al 
  0.4811259  0.2643248  0.7537968

 Al 
  0.7410202  0.9888248  0.7456450

 Al 
  0.7382790  0.2565591  0.5035431

 Al 
  0.5191785  0.5095268  0.5053512

 Al 
  0.4956029  0.7538612  0.7533724

 Al 
  0.7489765  0.4903631  0.7435412

 Al 
  0.7764108  0.7573128  0.5040604

