32 
charge = 0 
 Al 
  0.9948109  0.9701710  0.9822991

 Al 
  0.9979667  0.2492587  0.2616665

 Al 
  0.2602817  0.0091926  0.2399287

 Al 
  0.2395946  0.2552052  0.9991498

 Al 
  0.4951017  0.0041867  0.9954705

 Al 
  0.5020618  0.2684719  0.2707391

 Al 
  0.7361331  0.9715410  0.2455609

 Al 
  0.7656465  0.2565875  0.0049354

 Al 
  0.0082397  0.5254183  0.0087483

 Al 
  0.0116281  0.7561321  0.2442602

 Al 
  0.2410747  0.4985855  0.2657950

 Al 
  0.2561532  0.7429744  0.0041904

 Al 
  0.0136738  0.9978479  0.4937664

 Al 
  0.0003997  0.2262759  0.7518724

 Al 
  0.2503861  0.0015903  0.7524516

 Al 
  0.2551582  0.2525222  0.5015408

 Al 
  0.9989728  0.4934768  0.4989753

 Al 
  0.0102421  0.7360143  0.7470435

 Al 
  0.2376145  0.5021298  0.7406576

 Al 
  0.2580689  0.7496634  0.4988082

 Al 
  0.5018724  0.5013366  0.9955621

 Al 
  0.4707316  0.7474444  0.2479555

 Al 
  0.7503849  0.5204359  0.2589129

 Al 
  0.7292684  0.7504628  0.9822979

 Al 
  0.5137914  0.9924967  0.4991090

 Al 
  0.4809242  0.2637605  0.7537176

 Al 
  0.7408210  0.9893644  0.7455448

 Al 
  0.7384894  0.2562398  0.5032288

 Al 
  0.5194966  0.5092693  0.5050975

 Al 
  0.4956277  0.7535085  0.7533167

 Al 
  0.7492649  0.4907381  0.7435634

 Al 
  0.7761200  0.7576964  0.5038364

