32 
charge = 0 
 Al 
  0.9940906  0.9693877  0.9803512

 Al 
  0.9989864  0.2479357  0.2619536

 Al 
  0.2589921  0.0113497  0.2429607

 Al 
  0.2398594  0.2555554  0.9998936

 Al 
  0.4919905  0.0049923  0.9957255

 Al 
  0.5010358  0.2666799  0.2705683

 Al 
  0.7340590  0.9750210  0.2453789

 Al 
  0.7683543  0.2592570  0.0067608

 Al 
  0.0101356  0.5214779  0.0091085

 Al 
  0.0110997  0.7586691  0.2433729

 Al 
  0.2426130  0.4950522  0.2716314

 Al 
  0.2532127  0.7418160  0.0020643

 Al 
  0.0168779  0.9966264  0.4934459

 Al 
  0.0012858  0.2295171  0.7524355

 Al 
  0.2502661  0.9998255  0.7510061

 Al 
  0.2520346  0.2567200  0.5016311

 Al 
  0.0003874  0.4914324  0.5018427

 Al 
  0.0091703  0.7328833  0.7466586

 Al 
  0.2377358  0.5013725  0.7408433

 Al 
  0.2596765  0.7510037  0.4990211

 Al 
  0.5015420  0.5007314  0.9944099

 Al 
  0.4716140  0.7465522  0.2478788

 Al 
  0.7535122  0.5221239  0.2581840

 Al 
  0.7269863  0.7494134  0.9792671

 Al 
  0.5126318  0.9955757  0.5018848

 Al 
  0.4800455  0.2597607  0.7531261

 Al 
  0.7398111  0.9932986  0.7448839

 Al 
  0.7403000  0.2537498  0.5012153

 Al 
  0.5209952  0.5079303  0.5034454

 Al 
  0.4956054  0.7509665  0.7525543

 Al 
  0.7513725  0.4934149  0.7441067

 Al 
  0.7737204  0.7599092  0.5023897

