32 
charge = 0 
 Al 
  0.9956562  0.9719185  0.9850837

 Al 
  0.9967427  0.2504208  0.2607544

 Al 
  0.2609215  0.0070207  0.2373954

 Al 
  0.2392815  0.2549874  0.9986597

 Al 
  0.4985124  0.0037968  0.9953146

 Al 
  0.5030976  0.2698035  0.2696364

 Al 
  0.7388916  0.9688629  0.2456190

 Al 
  0.7622321  0.2536186  0.0031941

 Al 
  0.0054651  0.5280221  0.0078796

 Al 
  0.0119796  0.7537053  0.2461425

 Al 
  0.2400166  0.5021187  0.2592471

 Al 
  0.2592038  0.7446438  0.0054205

 Al 
  0.0102285  0.9990595  0.4943357

 Al 
  0.9993132  0.2239765  0.7509405

 Al 
  0.2506423  0.0028650  0.7535233

 Al 
  0.2582583  0.2478999  0.5016905

 Al 
  0.9975360  0.4957217  0.4962910

 Al 
  0.0108534  0.7400116  0.7470076

 Al 
  0.2382085  0.5025692  0.7409831

 Al 
  0.2557485  0.7486152  0.4988961

 Al 
  0.5019714  0.5016064  0.9971561

 Al 
  0.4716524  0.7482513  0.2483330

 Al 
  0.7470905  0.5184582  0.2589501

 Al 
  0.7326085  0.7510111  0.9862556

 Al 
  0.5141008  0.9893929  0.4961314

 Al 
  0.4826716  0.2672652  0.7542201

 Al 
  0.7424397  0.9860861  0.7461945

 Al 
  0.7374561  0.2579749  0.5053661

 Al 
  0.5167677  0.5113658  0.5068016

 Al 
  0.4953134  0.7556519  0.7533711

 Al 
  0.7475459  0.4884746  0.7438506

 Al 
  0.7775902  0.7548240  0.5053549

