32 
charge = 0 
 Al 
  0.9962267  0.9733738  0.9871244

 Al 
  0.9959631  0.2509814  0.2599005

 Al 
  0.2608918  0.0058413  0.2362668

 Al 
  0.2390797  0.2549465  0.9985199

 Al 
  0.5005829  0.0038265  0.9952775

 Al 
  0.5036434  0.2702948  0.2683357

 Al 
  0.7408173  0.9677961  0.2456326

 Al 
  0.7599686  0.2518081  0.0022746

 Al 
  0.0034404  0.5287684  0.0070652

 Al 
  0.0120365  0.7524838  0.2476944

 Al 
  0.2397134  0.5039453  0.2553129

 Al 
  0.2608683  0.7458554  0.0055455

 Al 
  0.0082050  0.9997253  0.4947267

 Al 
  0.9985780  0.2232414  0.7502302

 Al 
  0.2509009  0.0032969  0.7539231

 Al 
  0.2599228  0.2451884  0.5018266

 Al 
  0.9968145  0.4970088  0.4949347

 Al 
  0.0109896  0.7426712  0.7468158

 Al 
  0.2388458  0.5026620  0.7414051

 Al 
  0.2541013  0.7482229  0.4991065

 Al 
  0.5019479  0.5016262  0.9982662

 Al 
  0.4731956  0.7486325  0.2487587

 Al 
  0.7451673  0.5172232  0.2585813

 Al 
  0.7349698  0.7509777  0.9888855

 Al 
  0.5138545  0.9876615  0.4943988

 Al 
  0.4840713  0.2689025  0.7544886

 Al 
  0.7436699  0.9846060  0.7465336

 Al 
  0.7372741  0.2584798  0.5065814

 Al 
  0.5145574  0.5129474  0.5077335

 Al 
  0.4950027  0.7565974  0.7531013

 Al 
  0.7468430  0.4875365  0.7445374

 Al 
  0.7778575  0.7528687  0.5062138

