32 
charge = 0 
 Al 
  0.9950436  0.9705770  0.9830206

 Al 
  0.9976264  0.2496238  0.2614722

 Al 
  0.2605539  0.0085441  0.2391144

 Al 
  0.2395079  0.2551235  0.9989741

 Al 
  0.4960782  0.0040171  0.9954136

 Al 
  0.5023724  0.2689223  0.2705658

 Al 
  0.7368682  0.9706512  0.2455881

 Al 
  0.7647159  0.2557411  0.0044082

 Al 
  0.0075231  0.5263527  0.0085577

 Al 
  0.0117581  0.7553896  0.2447008

 Al 
  0.2406997  0.4996510  0.2639251

 Al 
  0.2570553  0.7434087  0.0046730

 Al 
  0.0126764  0.9982080  0.4939124

 Al 
  0.0001040  0.2254752  0.7516398

 Al 
  0.2504406  0.0020296  0.7528142

 Al 
  0.2560888  0.2511893  0.5015655

 Al 
  0.9985384  0.4941265  0.4981511

 Al 
  0.0104747  0.7370996  0.7470794

 Al 
  0.2377135  0.5022969  0.7406960

 Al 
  0.2574637  0.7493132  0.4987971

 Al 
  0.5019244  0.5014517  0.9959841

 Al 
  0.4707799  0.7476969  0.2480236

 Al 
  0.7494282  0.5198802  0.2590095

 Al 
  0.7301396  0.7506955  0.9833684

 Al 
  0.5139807  0.9915771  0.4982464

 Al 
  0.4813425  0.2648656  0.7538736

 Al 
  0.7412282  0.9883125  0.7457415

 Al 
  0.7380909  0.2568536  0.5038525

 Al 
  0.5188394  0.5097978  0.5056012

 Al 
  0.4955708  0.7541966  0.7534107

 Al 
  0.7487030  0.4900054  0.7435387

 Al 
  0.7766732  0.7569229  0.5042820

