32 
charge = 0 
 Al 
  0.9957898  0.9722477  0.9855552

 Al 
  0.9965559  0.2505656  0.2605663

 Al 
  0.2609413  0.0067249  0.2370959

 Al 
  0.2392332  0.2549713  0.9986164

 Al 
  0.4990149  0.0037869  0.9953022

 Al 
  0.5032362  0.2699433  0.2693604

 Al 
  0.7393421  0.9685684  0.2456215

 Al 
  0.7616950  0.2531805  0.0029627

 Al 
  0.0049960  0.5282560  0.0077014

 Al 
  0.0120044  0.7533909  0.2464952

 Al 
  0.2399213  0.5025853  0.2582892

 Al 
  0.2596220  0.7449248  0.0054923

 Al 
  0.0097334  0.9992253  0.4944297

 Al 
  0.9991399  0.2237550  0.7507772

 Al 
  0.2506980  0.0029924  0.7536360

 Al 
  0.2586766  0.2472340  0.5017227

 Al 
  0.9973479  0.4960410  0.4959445

 Al 
  0.0108992  0.7406428  0.7469692

 Al 
  0.2383483  0.5026014  0.7410722

 Al 
  0.2553624  0.7485038  0.4989369

 Al 
  0.5019702  0.5016187  0.9974160

 Al 
  0.4719630  0.7483516  0.2484221

 Al 
  0.7466190  0.5181612  0.2588857

 Al 
  0.7331617  0.7510272  0.9868806

 Al 
  0.5140674  0.9889622  0.4957057

 Al 
  0.4829922  0.2676947  0.7542869

 Al 
  0.7427231  0.9856950  0.7462799

 Al 
  0.7373855  0.2581333  0.5056680

 Al 
  0.5162678  0.5117296  0.5070355

 Al 
  0.4952440  0.7559044  0.7533229

 Al 
  0.7473516  0.4882172  0.7439830

 Al 
  0.7776966  0.7543636  0.5055678

