32 
charge = 0 
 Al 
  0.9967316  0.9747339  0.9889708

 Al 
  0.9953084  0.2513725  0.2590602

 Al 
  0.2606678  0.0049490  0.2355354

 Al 
  0.2389139  0.2549577  0.9984753

 Al 
  0.5022759  0.0039738  0.9952762

 Al 
  0.5040369  0.2705473  0.2669868

 Al 
  0.7425177  0.9671897  0.2456562

 Al 
  0.7580367  0.2503230  0.0015841

 Al 
  0.0016311  0.5290072  0.0062534

 Al 
  0.0119969  0.7516200  0.2491250

 Al 
  0.2396317  0.5052535  0.2521410

 Al 
  0.2621046  0.7469420  0.0053426

 Al 
  0.0065838  0.0002339  0.4950398

 Al 
  0.9979382  0.2229617  0.7495891

 Al 
  0.2511769  0.0034899  0.7541434

 Al 
  0.2611740  0.2430375  0.5019331

 Al 
  0.9963232  0.4980001  0.4939607

 Al 
  0.0110118  0.7449384  0.7466091

 Al 
  0.2394634  0.5026719  0.7418408

 Al 
  0.2526595  0.7480249  0.4993490

 Al 
  0.5019034  0.5015965  0.9992339

 Al 
  0.4749220  0.7488874  0.2492067

 Al 
  0.7436340  0.5162009  0.2580986

 Al 
  0.7370266  0.7507661  0.9911081

 Al 
  0.5134684  0.9863237  0.4930313

 Al 
  0.4853522  0.2699916  0.7547027

 Al 
  0.7447849  0.9836233  0.7467885

 Al 
  0.7373150  0.2586308  0.5075170

 Al 
  0.5124920  0.5143693  0.5084303

 Al 
  0.4947144  0.7571989  0.7527746

 Al 
  0.7464408  0.4870081  0.7453579

 Al 
  0.7777635  0.7511757  0.5068771

