32 
charge = 0 
 Al 
  0.9963876  0.9738008  0.9877073

 Al 
  0.9957514  0.2511138  0.2596406

 Al 
  0.2608373  0.0055455  0.2360131

 Al 
  0.2390253  0.2549465  0.9984988

 Al 
  0.5011311  0.0038637  0.9952750

 Al 
  0.5037758  0.2703901  0.2679236

 Al 
  0.7413569  0.9675759  0.2456388

 Al 
  0.7593498  0.2513267  0.0020445

 Al 
  0.0028662  0.5288785  0.0068165

 Al 
  0.0120328  0.7521905  0.2481449

 Al 
  0.2396725  0.5043872  0.2542807

 Al 
  0.2612816  0.7461994  0.0055084

 Al 
  0.0076766  0.9998936  0.4948295

 Al 
  0.9983751  0.2231214  0.7500272

 Al 
  0.2509839  0.0033748  0.7540048

 Al 
  0.2603386  0.2444842  0.5018625

 Al 
  0.9966450  0.4973368  0.4946067

 Al 
  0.0110032  0.7433988  0.7467514

 Al 
  0.2390389  0.5026707  0.7415375

 Al 
  0.2536421  0.7481474  0.4991795

 Al 
  0.5019355  0.5016200  0.9985743

 Al 
  0.4737142  0.7487204  0.2488949

 Al 
  0.7446661  0.5168927  0.2584414

 Al 
  0.7356257  0.7509257  0.9896008

 Al 
  0.5137456  0.9872209  0.4939508

 Al 
  0.4844748  0.2692787  0.7545579

 Al 
  0.7440213  0.9842681  0.7466177

 Al 
  0.7372717  0.2585528  0.5068907

 Al 
  0.5139102  0.5133979  0.5079662

 Al 
  0.4949124  0.7568078  0.7530036

 Al 
  0.7466957  0.4873434  0.7447800

 Al 
  0.7778551  0.7523279  0.5064328

