32 
charge = 0 
 Al 
  0.0006534  0.9857730  0.0034478

 Al 
  0.9908965  0.2530271  0.2516608

 Al 
  0.2565801  0.0001473  0.2337570

 Al 
  0.2380402  0.2555653  0.9989840

 Al 
  0.5129214  0.0063363  0.9959866

 Al 
  0.5053859  0.2693691  0.2547572

 Al 
  0.7552559  0.9678964  0.2467229

 Al 
  0.7450027  0.2407368  0.9980521

 Al 
  0.9886070  0.5254232  0.9989060

 Al 
  0.0102223  0.7481201  0.2593733

 Al 
  0.2415524  0.5105391  0.2328598

 Al 
  0.2673816  0.7551062  0.9997983

 Al 
  0.9966202  0.0028006  0.4962205

 Al 
  0.9934285  0.2263341  0.7451760

 Al 
  0.2543253  0.0025766  0.7541384

 Al 
  0.2675090  0.2306136  0.5019838

 Al 
  0.9953195  0.5025605  0.4900042

 Al 
  0.0103114  0.7600416  0.7455695

 Al 
  0.2438468  0.5023736  0.7458109

 Al 
  0.2425994  0.7487525  0.5016460

 Al 
  0.5013873  0.5015321  0.0058698

 Al 
  0.4921712  0.7496980  0.2530543

 Al 
  0.7349277  0.5092372  0.2527363

 Al 
  0.7511683  0.7469989  0.0053896

 Al 
  0.5088090  0.9792052  0.4856443

 Al 
  0.4949532  0.2726697  0.7560059

 Al 
  0.7529763  0.9802423  0.7483342

 Al 
  0.7396008  0.2558920  0.5119796

 Al 
  0.4959544  0.5243020  0.5115081

 Al 
  0.4932701  0.7586431  0.7498738

 Al 
  0.7466004  0.4880773  0.7543438

 Al 
  0.7717205  0.7394089  0.5104079

