32 
charge = 0 
 Al 
  0.9997017  0.9830565  0.9999864

 Al 
  0.9918865  0.2527561  0.2535221

 Al 
  0.2577570  0.0010841  0.2337248

 Al 
  0.2381887  0.2553760  0.9988082

 Al 
  0.5107000  0.0057188  0.9956933

 Al 
  0.5053030  0.2701092  0.2577929

 Al 
  0.7522833  0.9670190  0.2462749

 Al 
  0.7478120  0.2428110  0.9987018

 Al 
  0.9914757  0.5268885  0.0007636

 Al 
  0.0108287  0.7486313  0.2571692

 Al 
  0.2408272  0.5098077  0.2368769

 Al 
  0.2666576  0.7532127  0.0015061

 Al 
  0.9987241  0.0023439  0.4961462

 Al 
  0.9944124  0.2248651  0.7460918

 Al 
  0.2534157  0.0030085  0.7543129

 Al 
  0.2663705  0.2330974  0.5021175

 Al 
  0.9951896  0.5019343  0.4905252

 Al 
  0.0105428  0.7567893  0.7456376

 Al 
  0.2429459  0.5024281  0.7447787

 Al 
  0.2448196  0.7482885  0.5010841

 Al 
  0.5015333  0.5014306  0.0044577

 Al 
  0.4877048  0.7496188  0.2521843

 Al 
  0.7365786  0.5108472  0.2541236

 Al 
  0.7480880  0.7480607  0.0024083

 Al 
  0.5100416  0.9805022  0.4869784

 Al 
  0.4927504  0.2727390  0.7557534

 Al 
  0.7511546  0.9806284  0.7479766

 Al 
  0.7389238  0.2569514  0.5112977

 Al 
  0.4999047  0.5222006  0.5110799

 Al 
  0.4933988  0.7586258  0.7505371

 Al 
  0.7462007  0.4871553  0.7519454

 Al 
  0.7738751  0.7420128  0.5097421

