32 
charge = 0 
 Al 
  0.0023019  0.9906131  0.0091443

 Al 
  0.9892753  0.2534082  0.2483738

 Al 
  0.2544911  0.9988020  0.2346159

 Al 
  0.2378979  0.2558920  0.9992067

 Al 
  0.5159782  0.0070912  0.9967823

 Al 
  0.5050084  0.2670610  0.2496696

 Al 
  0.7600441  0.9707886  0.2479741

 Al 
  0.7410648  0.2376318  0.9972328

 Al 
  0.9845453  0.5218158  0.9956933

 Al 
  0.0088572  0.7475880  0.2623670

 Al 
  0.2431018  0.5110787  0.2269331

 Al 
  0.2677466  0.7581716  0.9965113

 Al 
  0.9934595  0.0033847  0.4959396

 Al 
  0.9920511  0.2299453  0.7440312

 Al 
  0.2561804  0.0017177  0.7536446

 Al 
  0.2688407  0.2271917  0.5013885

 Al 
  0.9961784  0.5025976  0.4898371

 Al 
  0.0098126  0.7648458  0.7460249

 Al 
  0.2449668  0.5023736  0.7478219

 Al 
  0.2392567  0.7501077  0.5025160

 Al 
  0.5010569  0.5021311  0.0077001

 Al 
  0.5000545  0.7497438  0.2541335

 Al 
  0.7330442  0.5063561  0.2504777

 Al 
  0.7557064  0.7452985  0.0096121

 Al 
  0.5067026  0.9777486  0.4842186

 Al 
  0.4984382  0.2713566  0.7562460

 Al 
  0.7556222  0.9801792  0.7490335

 Al 
  0.7407480  0.2535815  0.5123880

 Al 
  0.4893632  0.5269962  0.5115947

 Al 
  0.4937379  0.7582706  0.7489852

 Al 
  0.7477365  0.4908086  0.7585912

 Al 
  0.7667269  0.7354252  0.5113088

