32 
charge = 0 
 Al 
  0.0008787  0.9864202  0.0042510

 Al 
  0.9906688  0.2530840  0.2512178

 Al 
  0.2562967  0.9999431  0.2338090

 Al 
  0.2380105  0.2556111  0.9990236

 Al 
  0.5134040  0.0064712  0.9960695

 Al 
  0.5053784  0.2691414  0.2540481

 Al 
  0.7559403  0.9681773  0.2468541

 Al 
  0.7443864  0.2402740  0.9979172

 Al 
  0.9879746  0.5250198  0.9984654

 Al 
  0.0100626  0.7480236  0.2598510

 Al 
  0.2417417  0.5106666  0.2319700

 Al 
  0.2675004  0.7555406  0.9993726

 Al 
  0.9961512  0.0028947  0.4962143

 Al 
  0.9932120  0.2267400  0.7449817

 Al 
  0.2545555  0.0024640  0.7540852

 Al 
  0.2677417  0.2300777  0.5019331

 Al 
  0.9953864  0.5026521  0.4899225

 Al 
  0.0102520  0.7607631  0.7455831

 Al 
  0.2440362  0.5023662  0.7460646

 Al 
  0.2421031  0.7488924  0.5017747

 Al 
  0.5013489  0.5015767  0.0061730

 Al 
  0.4932367  0.7497104  0.2532412

 Al 
  0.7345899  0.5088560  0.2524132

 Al 
  0.7518526  0.7467489  0.0060405

 Al 
  0.5085169  0.9789429  0.4853770

 Al 
  0.4954557  0.2725868  0.7560566

 Al 
  0.7533798  0.9801854  0.7484209

 Al 
  0.7397616  0.2556136  0.5120972

 Al 
  0.4950361  0.5247512  0.5115749

 Al 
  0.4932751  0.7586221  0.7497290

 Al 
  0.7467217  0.4883582  0.7549193

 Al 
  0.7711425  0.7388248  0.5105490

