32 
charge = 0 
 Al 
  0.0015185  0.9882790  0.0064972

 Al 
  0.9900327  0.2532350  0.2499493

 Al 
  0.2554824  0.9993998  0.2340627

 Al 
  0.2379449  0.2557423  0.9991250

 Al 
  0.5146750  0.0068128  0.9963467

 Al 
  0.5052869  0.2683580  0.2520519

 Al 
  0.7578375  0.9691562  0.2472897

 Al 
  0.7427553  0.2390179  0.9975707

 Al 
  0.9862965  0.5237340  0.9972142

 Al 
  0.0095664  0.7477922  0.2611034

 Al 
  0.2423197  0.5109363  0.2295753

 Al 
  0.2677256  0.7567497  0.9981214

 Al 
  0.9948802  0.0031372  0.4961438

 Al 
  0.9926415  0.2280357  0.7444904

 Al 
  0.2552473  0.0021323  0.7539082

 Al 
  0.2683209  0.2286644  0.5017413

 Al 
  0.9956599  0.5027759  0.4897852

 Al 
  0.0100713  0.7627085  0.7456945

 Al 
  0.2445176  0.5023576  0.7468182

 Al 
  0.2407554  0.7493614  0.5021249

 Al 
  0.5012301  0.5017598  0.0069539

 Al 
  0.4962873  0.7497314  0.2537139

 Al 
  0.7337558  0.5077595  0.2515135

 Al 
  0.7536929  0.7460596  0.0077682

 Al 
  0.5076915  0.9782981  0.4847359

 Al 
  0.4968405  0.2721920  0.7561717

 Al 
  0.7544602  0.9801037  0.7486795

 Al 
  0.7402158  0.2547572  0.5123335

 Al 
  0.4924558  0.5259034  0.5116776

 Al 
  0.4933778  0.7585120  0.7493515

 Al 
  0.7471276  0.4893087  0.7565677

 Al 
  0.7693307  0.7372284  0.5109203

