32 
charge = 0 
 Al 
  0.0032152  0.9934780  0.0120341

 Al 
  0.9884102  0.2536236  0.2464878

 Al 
  0.2533785  0.9981808  0.2356653

 Al 
  0.2379090  0.2560245  0.9991981

 Al 
  0.5170511  0.0070949  0.9974692

 Al 
  0.5043909  0.2649324  0.2470014

 Al 
  0.7624090  0.9734555  0.2490260

 Al 
  0.7396490  0.2362742  0.9969667

 Al 
  0.9830516  0.5189582  0.9939632

 Al 
  0.0078412  0.7474172  0.2633719

 Al 
  0.2441166  0.5109970  0.2242934

 Al 
  0.2673816  0.7597483  0.9945498

 Al 
  0.9920029  0.0036174  0.4955373

 Al 
  0.9915549  0.2327150  0.7437416

 Al 
  0.2574142  0.0012697  0.7532795

 Al 
  0.2691352  0.2258923  0.5007685

 Al 
  0.9970682  0.5018353  0.4902604

 Al 
  0.0094339  0.7669534  0.7467576

 Al 
  0.2452614  0.5024318  0.7491560

 Al 
  0.2377494  0.7512710  0.5029021

 Al 
  0.5008081  0.5028315  0.0081803

 Al 
  0.5045072  0.7497624  0.2543104

 Al 
  0.7327558  0.5045443  0.2494122

 Al 
  0.7576803  0.7446290  0.0113596

 Al 
  0.5056024  0.9775036  0.4840565

 Al 
  0.5001584  0.2698208  0.7562039

 Al 
  0.7567039  0.9805666  0.7495396

 Al 
  0.7413098  0.2520135  0.5120625

 Al 
  0.4858212  0.5276830  0.5111244

 Al 
  0.4945844  0.7578338  0.7487439

 Al 
  0.7485879  0.4931055  0.7609104

 Al 
  0.7630550  0.7335355  0.5116640

