32 
charge = 0 
 Al 
  0.0037523  0.9952824  0.0136206

 Al 
  0.9879016  0.2537758  0.2453344

 Al 
  0.2527598  0.9978367  0.2365205

 Al 
  0.2379610  0.2560641  0.9991201

 Al 
  0.5174224  0.0068709  0.9979902

 Al 
  0.5038525  0.2632914  0.2454742

 Al 
  0.7636813  0.9754925  0.2497933

 Al 
  0.7391491  0.2356232  0.9968739

 Al 
  0.9824984  0.5168816  0.9929768

 Al 
  0.0071172  0.7473207  0.2636924

 Al 
  0.2447676  0.5108435  0.2229642

 Al 
  0.2669534  0.7606468  0.9933580

 Al 
  0.9912405  0.0037374  0.4952292

 Al 
  0.9913754  0.2346740  0.7437095

 Al 
  0.2582298  0.0010482  0.7530382

 Al 
  0.2691278  0.2253601  0.5002760

 Al 
  0.9977452  0.5010717  0.4907170

 Al 
  0.0091555  0.7679966  0.7474011

 Al 
  0.2453072  0.5024875  0.7500545

 Al 
  0.2369870  0.7521298  0.5030927

 Al 
  0.5006349  0.5034095  0.0082224

 Al 
  0.5071878  0.7497896  0.2542151

 Al 
  0.7329055  0.5033315  0.2488738

 Al 
  0.7586592  0.7443938  0.0121949

 Al 
  0.5049911  0.9775853  0.4842099

 Al 
  0.5011113  0.2685956  0.7560975

 Al 
  0.7571927  0.9809762  0.7499035

 Al 
  0.7415970  0.2509764  0.5116504

 Al 
  0.4837261  0.5277251  0.5106170

 Al 
  0.4953431  0.7574922  0.7487191

 Al 
  0.7491448  0.4947738  0.7622358

 Al 
  0.7605230  0.7325170  0.5118224

