32 
charge = 0 
 Al 
  0.0048587  0.9993639  0.0165759

 Al 
  0.9868534  0.2542077  0.2428221

 Al 
  0.2515977  0.9971165  0.2388756

 Al 
  0.2382196  0.2560121  0.9987439

 Al 
  0.5175090  0.0057497  0.9993849

 Al 
  0.5022957  0.2588609  0.2423853

 Al 
  0.7659720  0.9809329  0.2517338

 Al 
  0.7389795  0.2346629  0.9968182

 Al 
  0.9821964  0.5115316  0.9910710

 Al 
  0.0052559  0.7470410  0.2636689

 Al 
  0.2462192  0.5103423  0.2207576

 Al 
  0.2655500  0.7624536  0.9908544

 Al 
  0.9898743  0.0039627  0.4944990

 Al 
  0.9912876  0.2395636  0.7439879

 Al 
  0.2601369  0.0007438  0.7524739

 Al 
  0.2686377  0.2248626  0.4989283

 Al 
  0.9995013  0.4987426  0.4921774

 Al 
  0.0084191  0.7696970  0.7492822

 Al 
  0.2451067  0.5026570  0.7522227

 Al 
  0.2356851  0.7543451  0.5034070

 Al 
  0.5002364  0.5050257  0.0076704

 Al 
  0.5129127  0.7499270  0.2534738

 Al 
  0.7340416  0.5003539  0.2479939

 Al 
  0.7603126  0.7443827  0.0135414

 Al 
  0.5038414  0.9783266  0.4851356

 Al 
  0.5029825  0.2652777  0.7556631

 Al 
  0.7578536  0.9823313  0.7508440

 Al 
  0.7420660  0.2485459  0.5102433

 Al 
  0.4792721  0.5268341  0.5089488

 Al 
  0.4975806  0.7565727  0.7489877

 Al 
  0.7503428  0.4989901  0.7648111

 Al 
  0.7544032  0.7305839  0.5120167

