32 
charge = 0 
 Al 
  0.0050493  0.0001213  0.0170388

 Al 
  0.9866739  0.2543042  0.2423704

 Al 
  0.2514158  0.9969841  0.2393632

 Al 
  0.2382902  0.2559799  0.9986473

 Al 
  0.5174298  0.0054589  0.9996720

 Al 
  0.5019652  0.2579489  0.2418556

 Al 
  0.7663148  0.9820454  0.2521150

 Al 
  0.7390686  0.2345515  0.9968257

 Al 
  0.9822608  0.5104586  0.9907653

 Al 
  0.0048797  0.7469729  0.2635711

 Al 
  0.2464828  0.5102384  0.2204507

 Al 
  0.2652356  0.7627617  0.9904213

 Al 
  0.9896651  0.0039998  0.4943691

 Al 
  0.9913111  0.2405240  0.7440820

 Al 
  0.2604970  0.0007165  0.7523675

 Al 
  0.2684855  0.2248614  0.4986498

 Al 
  0.9998515  0.4982427  0.4924991

 Al 
  0.0082694  0.7699309  0.7496832

 Al 
  0.2450349  0.5026942  0.7526422

 Al 
  0.2354933  0.7547894  0.5034540

 Al 
  0.5001658  0.5053599  0.0074848

 Al 
  0.5139300  0.7499653  0.2532684

 Al 
  0.7343510  0.4997661  0.2478726

 Al 
  0.7605576  0.7444508  0.0137308

 Al 
  0.5036607  0.9785332  0.4853794

 Al 
  0.5032981  0.2645970  0.7555579

 Al 
  0.7579204  0.9826407  0.7510334

 Al 
  0.7421279  0.2480867  0.5099253

 Al 
  0.4784763  0.5265383  0.5085714

 Al 
  0.4980583  0.7563833  0.7490780

 Al 
  0.7505470  0.4998206  0.7652257

 Al 
  0.7532300  0.7302695  0.5120303

