32 
charge = 0 
 Al 
  0.0046706  0.9986300  0.0161044

 Al 
  0.9870316  0.2541198  0.2432652

 Al 
  0.2517846  0.9972439  0.2384164

 Al 
  0.2381578  0.2560356  0.9988305

 Al 
  0.5175598  0.0060084  0.9991139

 Al 
  0.5026051  0.2597211  0.2429100

 Al 
  0.7656156  0.9798809  0.2513687

 Al 
  0.7389251  0.2347904  0.9968170

 Al 
  0.9821667  0.5125514  0.9913816

 Al 
  0.0056123  0.7471004  0.2637382

 Al 
  0.2459618  0.5104413  0.2210831

 Al 
  0.2658396  0.7621479  0.9912851

 Al 
  0.9900884  0.0039255  0.4946277

 Al 
  0.9912764  0.2386454  0.7439087

 Al 
  0.2597891  0.0007784  0.7525766

 Al 
  0.2687689  0.2248886  0.4991906

 Al 
  0.9991684  0.4992117  0.4918779

 Al 
  0.0085615  0.7694483  0.7489072

 Al 
  0.2451686  0.5026224  0.7518205

 Al 
  0.2358831  0.7539243  0.5033600

 Al 
  0.5003057  0.5047089  0.0078276

 Al 
  0.5119128  0.7498923  0.2536545

 Al 
  0.7337669  0.5009146  0.2481214

 Al 
  0.7600601  0.7443357  0.0133434

 Al 
  0.5040258  0.9781434  0.4849191

 Al 
  0.5026694  0.2659212  0.7557596

 Al 
  0.7577731  0.9820467  0.7506633

 Al 
  0.7419992  0.2489901  0.5105378

 Al 
  0.4800517  0.5270853  0.5092953

 Al 
  0.4971338  0.7567509  0.7489097

 Al 
  0.7501386  0.4981956  0.7643904

 Al 
  0.7555319  0.7309007  0.5119969

