32 
charge = 0 
 Al 
  0.0059997  0.0041495  0.0190981

 Al 
  0.9858188  0.2549205  0.2400376

 Al 
  0.2505891  0.9962588  0.2421600

 Al 
  0.2387951  0.2556928  0.9980038

 Al 
  0.5166069  0.0035394  0.0013180

 Al 
  0.5000446  0.2527016  0.2391948

 Al 
  0.7677603  0.9884152  0.2542139

 Al 
  0.7400500  0.2342508  0.9969148

 Al 
  0.9831073  0.5043971  0.9893830

 Al 
  0.0027251  0.7465212  0.2626714

 Al 
  0.2478442  0.5096629  0.2192627

 Al 
  0.2633285  0.7643025  0.9882729

 Al 
  0.9887530  0.0041743  0.4937614

 Al 
  0.9915994  0.2458628  0.7447527

 Al 
  0.2624350  0.0007264  0.7517920

 Al 
  0.2673853  0.2252710  0.4970558

 Al 
  0.0018068  0.4953183  0.4944174

 Al 
  0.0074179  0.7708566  0.7520420

 Al 
  0.2445225  0.5029231  0.7549428

 Al 
  0.2346542  0.7572855  0.5036669

 Al 
  0.4998379  0.5072707  0.0061284

 Al 
  0.5191698  0.7502525  0.2518811

 Al 
  0.7364128  0.4964432  0.2474061

 Al 
  0.7616603  0.7451302  0.0145117

 Al 
  0.5028612  0.9799428  0.4869771

 Al 
  0.5048673  0.2606987  0.7548847

 Al 
  0.7580541  0.9845738  0.7521088

 Al 
  0.7423420  0.2456017  0.5079872

 Al 
  0.4743193  0.5243701  0.5062645

 Al 
  0.5008514  0.7552869  0.7497512

 Al 
  0.7515086  0.5044354  0.7671464

 Al 
  0.7468727  0.7287622  0.5119870

