32 
charge = 0 
 Al 
  0.0070058  0.0087892  0.0205992

 Al 
  0.9851245  0.2559329  0.2375390

 Al 
  0.2499059  0.9952849  0.2457985

 Al 
  0.2397394  0.2550579  0.9969803

 Al 
  0.5148483  0.0005445  0.0034379

 Al 
  0.4975125  0.2458492  0.2363794

 Al 
  0.7685610  0.9967044  0.2567633

 Al 
  0.7421452  0.2345218  0.9970855

 Al 
  0.9850713  0.4966932  0.9883483

 Al 
  0.9998911  0.7457762  0.2609054

 Al 
  0.2493156  0.5089872  0.2188246

 Al 
  0.2605898  0.7659200  0.9861591

 Al 
  0.9881578  0.0042981  0.4933345

 Al 
  0.9922454  0.2524714  0.7458703

 Al 
  0.2647196  0.0011126  0.7510977

 Al 
  0.2654671  0.2266398  0.4950015

 Al 
  0.0042696  0.4914781  0.4970039

 Al 
  0.0063091  0.7713170  0.7552398

 Al 
  0.2437280  0.5032560  0.7577236

 Al 
  0.2339674  0.7604562  0.5038661

 Al 
  0.4996275  0.5096753  0.0038092

 Al 
  0.5248973  0.7507821  0.2496993

 Al 
  0.7395810  0.4921143  0.2471944

 Al 
  0.7626751  0.7465559  0.0149807

 Al 
  0.5022734  0.9821977  0.4894448

 Al 
  0.5065170  0.2556062  0.7538736

 Al 
  0.7577608  0.9874486  0.7535097

 Al 
  0.7423420  0.2426551  0.5052374

 Al 
  0.4695634  0.5205720  0.5029380

 Al 
  0.5045530  0.7538265  0.7509257

 Al 
  0.7522808  0.5101344  0.7687639

 Al 
  0.7393570  0.7273415  0.5116640

