32 
charge = 0 
 Al 
  0.0077174  0.0121430  0.0207069

 Al 
  0.9851319  0.2570912  0.2360155

 Al 
  0.2496201  0.9943233  0.2488701

 Al 
  0.2409559  0.2541879  0.9959222

 Al 
  0.5127642  0.9975472  0.0051569

 Al 
  0.4953406  0.2400389  0.2344686

 Al 
  0.7681699  0.0037424  0.2587112

 Al 
  0.7445126  0.2353559  0.9971920

 Al 
  0.9874474  0.4903668  0.9882444

 Al 
  0.9974234  0.7449941  0.2589451

 Al 
  0.2503106  0.5084971  0.2194669

 Al 
  0.2579501  0.7669917  0.9850651

 Al 
  0.9882803  0.0042498  0.4934545

 Al 
  0.9929991  0.2577187  0.7470026

 Al 
  0.2664299  0.0018638  0.7505495

 Al 
  0.2632951  0.2286335  0.4932738

 Al 
  0.0063041  0.4882766  0.4992203

 Al 
  0.0053302  0.7711178  0.7580788

 Al 
  0.2430177  0.5035914  0.7598547

 Al 
  0.2336407  0.7630748  0.5039899

 Al 
  0.4997042  0.5115700  0.0013811

 Al 
  0.5287944  0.7513848  0.2475459

 Al 
  0.7425994  0.4883384  0.2473232

 Al 
  0.7633620  0.7482476  0.0148904

 Al 
  0.5021546  0.9844995  0.4919113

 Al 
  0.5076444  0.2511905  0.7528947

 Al 
  0.7571432  0.9902950  0.7547312

 Al 
  0.7421056  0.2404633  0.5027004

 Al 
  0.4659386  0.5163692  0.4997426

 Al 
  0.5076791  0.7525605  0.7522313

 Al 
  0.7525061  0.5146911  0.7693604

 Al 
  0.7337273  0.7265878  0.5110985

