32 
charge = 0 
 Al 
  0.0071457  0.0094537  0.0207143

 Al 
  0.9850713  0.2561197  0.2372073

 Al 
  0.2498329  0.9951215  0.2463665

 Al 
  0.2399262  0.2549267  0.9968009

 Al 
  0.5145092  0.0000272  0.0037622

 Al 
  0.4971140  0.2447775  0.2359933

 Al 
  0.7685746  0.9980026  0.2571407

 Al 
  0.7425412  0.2346282  0.9971115

 Al 
  0.9854562  0.4955089  0.9882654

 Al 
  0.9994419  0.7456438  0.2605774

 Al 
  0.2495174  0.5088894  0.2188642

 Al 
  0.2601307  0.7661403  0.9859005

 Al 
  0.9881281  0.0043030  0.4933147

 Al 
  0.9923692  0.2534689  0.7460670

 Al 
  0.2650537  0.0012153  0.7509938

 Al 
  0.2651131  0.2269405  0.4946822

 Al 
  0.0046483  0.4908816  0.4974123

 Al 
  0.0061334  0.7713232  0.7557534

 Al 
  0.2435981  0.5033130  0.7581345

 Al 
  0.2338906  0.7609450  0.5038921

 Al 
  0.4996201  0.5100379  0.0033959

 Al 
  0.5256906  0.7508811  0.2493243

 Al 
  0.7401156  0.4914274  0.2471944

 Al 
  0.7628100  0.7468306  0.0150030

 Al 
  0.5022227  0.9825912  0.4898693

 Al 
  0.5067435  0.2548017  0.7537028

 Al 
  0.7576729  0.9879387  0.7537313

 Al 
  0.7423160  0.2422244  0.5047844

 Al 
  0.4688679  0.5198777  0.5023811

 Al 
  0.5051334  0.7535939  0.7511410

 Al 
  0.7523538  0.5109970  0.7689335

 Al 
  0.7382592  0.7271682  0.5115836

