32 
charge = 0 
 Al 
  0.0082347  0.0143099  0.0192924

 Al 
  0.9862148  0.2584860  0.2355997

 Al 
  0.2496114  0.9932206  0.2514863

 Al 
  0.2427256  0.2529070  0.9947800

 Al 
  0.5102990  0.9944310  0.0064650

 Al 
  0.4933828  0.2350465  0.2332756

 Al 
  0.7665066  0.0097718  0.2600255

 Al 
  0.7470348  0.2367742  0.9970942

 Al 
  0.9902765  0.4852854  0.9891899

 Al 
  0.9951871  0.7441674  0.2567608

 Al 
  0.2509306  0.5081692  0.2212192

 Al 
  0.2551817  0.7675647  0.9850799

 Al 
  0.9892159  0.0039639  0.4943245

 Al 
  0.9938246  0.2616727  0.7480917

 Al 
  0.2675635  0.0031100  0.7501188

 Al 
  0.2606170  0.2314242  0.4917442

 Al 
  0.0080021  0.4856641  0.5011064

 Al 
  0.0043872  0.7703480  0.7606666

 Al 
  0.2424632  0.5039986  0.7613905

 Al 
  0.2335627  0.7652257  0.5040802

 Al 
  0.5001015  0.5129474  0.9988095

 Al 
  0.5310133  0.7520593  0.2453802

 Al 
  0.7454693  0.4849426  0.2477501

 Al 
  0.7639350  0.7503156  0.0142283

 Al 
  0.5024330  0.9869846  0.4945263

 Al 
  0.5083795  0.2471771  0.7519256

 Al 
  0.7562794  0.9933518  0.7558797

 Al 
  0.7416836  0.2390661  0.5003490

 Al 
  0.4631169  0.5114413  0.4964234

 Al 
  0.5102408  0.7514690  0.7537907

 Al 
  0.7523415  0.5182627  0.7689916

 Al 
  0.7297881  0.7264418  0.5101542

