32 
charge = 0 
 Al 
  0.0083894  0.0148000  0.0182194

 Al 
  0.9870959  0.2590924  0.2358410

 Al 
  0.2496609  0.9927145  0.2523873

 Al 
  0.2436736  0.2522301  0.9942985

 Al 
  0.5091951  0.9931563  0.0068313

 Al 
  0.4926464  0.2333090  0.2330095

 Al 
  0.7654435  0.0118484  0.2603151

 Al 
  0.7480422  0.2375241  0.9969519

 Al 
  0.9915450  0.4836939  0.9899300

 Al 
  0.9943580  0.7438394  0.2558240

 Al 
  0.2510816  0.5080838  0.2222712

 Al 
  0.2539998  0.7676241  0.9854747

 Al 
  0.9898532  0.0037659  0.4949483

 Al 
  0.9941575  0.2627939  0.7484840

 Al 
  0.2677974  0.0037832  0.7499876

 Al 
  0.2593399  0.2328103  0.4911700

 Al 
  0.0085701  0.4848287  0.5017462

 Al 
  0.0040097  0.7698839  0.7616158

 Al 
  0.2423222  0.5042028  0.7618113

 Al 
  0.2335998  0.7659212  0.5041161

 Al 
  0.5003589  0.5133063  0.9977526

 Al 
  0.5313574  0.7523340  0.2445275

 Al 
  0.7465373  0.4837186  0.2480063

 Al 
  0.7641590  0.7512834  0.0137728

 Al 
  0.5026471  0.9880550  0.4956326

 Al 
  0.5085664  0.2456846  0.7515507

 Al 
  0.7558883  0.9946760  0.7563289

 Al 
  0.7414781  0.2388013  0.4994975

 Al 
  0.4622160  0.5092013  0.4950275

 Al 
  0.5110514  0.7510990  0.7545084

 Al 
  0.7522103  0.5193617  0.7685473

 Al 
  0.7287461  0.7265754  0.5096146

