32 
charge = 0 
 Al 
  0.0079711  0.0132716  0.0202874

 Al 
  0.9854450  0.2576853  0.2356678

 Al 
  0.2495867  0.9938555  0.2501002

 Al 
  0.2416564  0.2536793  0.9954223

 Al 
  0.5117135  0.9961697  0.0058029

 Al 
  0.4944421  0.2376986  0.2338449

 Al 
  0.7675981  0.0065752  0.2593919

 Al 
  0.7456314  0.2359116  0.9971845

 Al 
  0.9886528  0.4879189  0.9885179

 Al 
  0.9963962  0.7446277  0.2579971

 Al 
  0.2506324  0.5083300  0.2201005

 Al 
  0.2567385  0.7673160  0.9849129

 Al 
  0.9885860  0.0041557  0.4937317

 Al 
  0.9933630  0.2596703  0.7475014

 Al 
  0.2670214  0.0023489  0.7503403

 Al 
  0.2621776  0.2297683  0.4925697

 Al 
  0.0071073  0.4870266  0.5001089

 Al 
  0.0049069  0.7708443  0.7592693

 Al 
  0.2427417  0.5037585  0.7606220

 Al 
  0.2335763  0.7641020  0.5040320

 Al 
  0.4998391  0.5122618  0.0002475

 Al 
  0.5300134  0.7516794  0.2465769

 Al 
  0.7439087  0.4867680  0.2474766

 Al 
  0.7636243  0.7491164  0.0146725

 Al 
  0.5022313  0.9855799  0.4930560

 Al 
  0.5080206  0.2493490  0.7524590

 Al 
  0.7567818  0.9916229  0.7552510

 Al 
  0.7419373  0.2397220  0.5016187

 Al 
  0.4645797  0.5142753  0.4982847

 Al 
  0.5089067  0.7520469  0.7528897

 Al 
  0.7524714  0.5164212  0.7693233

 Al 
  0.7317398  0.7264418  0.5107371

