32 
charge = 0 
 Al 
  0.0083412  0.0146614  0.0186092

 Al 
  0.9867705  0.2588894  0.2357321

 Al 
  0.2496423  0.9928877  0.2520977

 Al 
  0.2433407  0.2524677  0.9944607

 Al 
  0.5095701  0.9935808  0.0067212

 Al 
  0.4928890  0.2338696  0.2330838

 Al 
  0.7658222  0.0111814  0.2602346

 Al 
  0.7477093  0.2372630  0.9970063

 Al 
  0.9911143  0.4841914  0.9896589

 Al 
  0.9946302  0.7439471  0.2561395

 Al 
  0.2510371  0.5081085  0.2218987

 Al 
  0.2543983  0.7676167  0.9853163

 Al 
  0.9896243  0.0038377  0.4947218

 Al 
  0.9940473  0.2624536  0.7483578

 Al 
  0.2677355  0.0035481  0.7500285

 Al 
  0.2597805  0.2323313  0.4913593

 Al 
  0.0083894  0.4850923  0.5015408

 Al 
  0.0041347  0.7700473  0.7613064

 Al 
  0.2423630  0.5041310  0.7616838

 Al 
  0.2335825  0.7657022  0.5041038

 Al 
  0.5002673  0.5132011  0.9981053

 Al 
  0.5312794  0.7522437  0.2448084

 Al 
  0.7461883  0.4841159  0.2479159

 Al 
  0.7640835  0.7509517  0.0139374

 Al 
  0.5025704  0.9876937  0.4952601

 Al 
  0.5085107  0.2461735  0.7516744

 Al 
  0.7560195  0.9942280  0.7561804

 Al 
  0.7415487  0.2388681  0.4997735

 Al 
  0.4625006  0.5099649  0.4954977

 Al 
  0.5107965  0.7512165  0.7542634

 Al 
  0.7522561  0.5190189  0.7687144

 Al 
  0.7290580  0.7265173  0.5098064

