32 
charge = 0 
 Al 
  0.0078932  0.0129325  0.0204594

 Al 
  0.9853176  0.2574860  0.2357544

 Al 
  0.2495916  0.9940114  0.2497104

 Al 
  0.2414138  0.2538550  0.9955869

 Al 
  0.5120638  0.9966202  0.0056037

 Al 
  0.4947292  0.2384412  0.2340317

 Al 
  0.7678135  0.0056779  0.2591852

 Al 
  0.7452651  0.2357185  0.9971932

 Al 
  0.9882506  0.4886862  0.9884040

 Al 
  0.9967254  0.7447478  0.2583102

 Al 
  0.2505359  0.5083808  0.2198691

 Al 
  0.2571358  0.7672219  0.9849364

 Al 
  0.9884672  0.0041916  0.4936241

 Al 
  0.9932429  0.2590664  0.7473405

 Al 
  0.2668432  0.0021793  0.7504059

 Al 
  0.2625526  0.2293797  0.4927949

 Al 
  0.0068536  0.4874189  0.4998280

 Al 
  0.0050443  0.7709457  0.7588882

 Al 
  0.2428271  0.5037028  0.7603869

 Al 
  0.2335924  0.7637790  0.5040196

 Al 
  0.4997884  0.5120489  0.0006188

 Al 
  0.5296557  0.7515816  0.2468925

 Al 
  0.7434879  0.4872704  0.2474197

 Al 
  0.7635402  0.7488243  0.0147567

 Al 
  0.5021979  0.9852247  0.4926798

 Al 
  0.5079068  0.2499394  0.7526001

 Al 
  0.7569044  0.9911861  0.7550827

 Al 
  0.7419954  0.2399448  0.5019652

 Al 
  0.4650042  0.5149733  0.4987612

 Al 
  0.5085206  0.7522090  0.7526694

 Al 
  0.7524912  0.5158816  0.7693580

 Al 
  0.7323474  0.7264752  0.5108633

