32 
charge = 0 
 Al 
  0.0086258  0.0151601  0.0150760

 Al 
  0.9898941  0.2602978  0.2371516

 Al 
  0.2497785  0.9915276  0.2539874

 Al 
  0.2461648  0.2504888  0.9932714

 Al 
  0.5067051  0.9905178  0.0072447

 Al 
  0.4911787  0.2302089  0.2328251

 Al 
  0.7625996  0.0154992  0.2604252

 Al 
  0.7500408  0.2394003  0.9964247

 Al 
  0.9944062  0.4813041  0.9921242

 Al 
  0.9927627  0.7432045  0.2538043

 Al 
  0.2512537  0.5079724  0.2250545

 Al 
  0.2513725  0.7674063  0.9870427

 Al 
  0.9916130  0.0032090  0.4967601

 Al 
  0.9948307  0.2641812  0.7491844

 Al 
  0.2677924  0.0054960  0.7498057

 Al 
  0.2562485  0.2361393  0.4900104

 Al 
  0.0095131  0.4835478  0.5028452

 Al 
  0.0032090  0.7686637  0.7634003

 Al 
  0.2422405  0.5047374  0.7623298

 Al 
  0.2338152  0.7669992  0.5042164

 Al 
  0.5010544  0.5136392  0.9955596

 Al 
  0.5310641  0.7528501  0.2428358

 Al 
  0.7485384  0.4814885  0.2486770

 Al 
  0.7646367  0.7535716  0.0124647

 Al 
  0.5032263  0.9904361  0.4980409

 Al 
  0.5087817  0.2428246  0.7508255

 Al 
  0.7550616  0.9976350  0.7572608

 Al 
  0.7410438  0.2388718  0.4979679

 Al 
  0.4607891  0.5040555  0.4919930

 Al 
  0.5122655  0.7504814  0.7561643

 Al 
  0.7519417  0.5209767  0.7671081

 Al 
  0.7275519  0.7272041  0.5081221

