32 
charge = 0 
 Al 
  0.0086877  0.0151106  0.0136701

 Al 
  0.9912257  0.2606814  0.2378781

 Al 
  0.2498082  0.9910574  0.2544886

 Al 
  0.2472378  0.2497537  0.9928914

 Al 
  0.5057435  0.9895772  0.0072781

 Al 
  0.4906601  0.2292411  0.2328697

 Al 
  0.7614004  0.0166242  0.2603077

 Al 
  0.7507277  0.2401762  0.9961611

 Al 
  0.9955138  0.4807262  0.9931130

 Al 
  0.9922194  0.7429979  0.2530568

 Al 
  0.2512809  0.5079476  0.2262338

 Al 
  0.2503577  0.7672145  0.9878409

 Al 
  0.9923667  0.0029664  0.4975694

 Al 
  0.9950696  0.2643929  0.7494023

 Al 
  0.2676241  0.0062076  0.7497673

 Al 
  0.2549800  0.2374697  0.4895921

 Al 
  0.0097755  0.4832360  0.5031768

 Al 
  0.0029120  0.7681464  0.7639857

 Al 
  0.2422838  0.5049688  0.7624128

 Al 
  0.2339439  0.7672677  0.5042659

 Al 
  0.5013502  0.5136231  0.9947725

 Al 
  0.5306532  0.7530073  0.2422566

 Al 
  0.7491869  0.4807844  0.2489604

 Al 
  0.7648124  0.7544911  0.0118769

 Al 
  0.5034639  0.9913532  0.4989505

 Al 
  0.5088114  0.2418655  0.7505817

 Al 
  0.7547683  0.9987761  0.7576011

 Al 
  0.7408953  0.2390995  0.4974952

 Al 
  0.4604190  0.5020346  0.4908482

 Al 
  0.5125538  0.7503082  0.7568066

 Al 
  0.7518712  0.5213517  0.7664336

 Al 
  0.7273996  0.7275407  0.5074538

