32 
charge = 0 
 Al 
  0.0084352  0.0149151  0.0177937

 Al 
  0.9874573  0.2592941  0.2359797

 Al 
  0.2496807  0.9925350  0.2526694

 Al 
  0.2440263  0.2519801  0.9941364

 Al 
  0.5088114  0.9927293  0.0069303

 Al 
  0.4924051  0.2327645  0.2329464

 Al 
  0.7650401  0.0124957  0.2603770

 Al 
  0.7483738  0.2377976  0.9968875

 Al 
  0.9919855  0.4832261  0.9902245

 Al 
  0.9940906  0.7437317  0.2555047

 Al 
  0.2511212  0.5080602  0.2226672

 Al 
  0.2535926  0.7676204  0.9856591

 Al 
  0.9900995  0.0036892  0.4951945

 Al 
  0.9942688  0.2631021  0.7486077

 Al 
  0.2678419  0.0040320  0.7499505

 Al 
  0.2588832  0.2333065  0.4909819

 Al 
  0.0087446  0.4845812  0.5019430

 Al 
  0.0038822  0.7697094  0.7619202

 Al 
  0.2422900  0.5042795  0.7619264

 Al 
  0.2336221  0.7661279  0.5041297

 Al 
  0.5004567  0.5133979  0.9973986

 Al 
  0.5314007  0.7524231  0.2442466

 Al 
  0.7468801  0.4833300  0.2481016

 Al 
  0.7642344  0.7516274  0.0135946

 Al 
  0.5027301  0.9884238  0.4960101

 Al 
  0.5086159  0.2452020  0.7514294

 Al 
  0.7557559  0.9951327  0.7564799

 Al 
  0.7414088  0.2387555  0.4992290

 Al 
  0.4619462  0.5084179  0.4945522

 Al 
  0.5112903  0.7509851  0.7547609

 Al 
  0.7521645  0.5196822  0.7683617

 Al 
  0.7284689  0.7266447  0.5094080

