32 
charge = 0 
 Al 
  0.0087149  0.0150549  0.0128880

 Al 
  0.9919818  0.2608646  0.2383038

 Al 
  0.2498168  0.9908037  0.2547362

 Al 
  0.2478306  0.2493515  0.9926922

 Al 
  0.5052312  0.9890909  0.0072719

 Al 
  0.4903916  0.2287659  0.2329142

 Al 
  0.7607495  0.0171737  0.2602161

 Al 
  0.7510767  0.2405995  0.9960101

 Al 
  0.9961066  0.4804799  0.9936624

 Al 
  0.9919435  0.7428964  0.2526657

 Al 
  0.2512895  0.5079377  0.2268774

 Al 
  0.2498156  0.7670932  0.9883001

 Al 
  0.9927788  0.0028328  0.4980187

 Al 
  0.9951933  0.2644485  0.7495099

 Al 
  0.2675028  0.0065937  0.7497537

 Al 
  0.2542882  0.2381838  0.4893731

 Al 
  0.0098955  0.4831036  0.5033365

 Al 
  0.0027561  0.7678630  0.7642790

 Al 
  0.2423209  0.5050963  0.7624375

 Al 
  0.2340218  0.7673828  0.5042943

 Al 
  0.5015111  0.5135872  0.9943666

 Al 
  0.5303809  0.7530803  0.2419633

 Al 
  0.7495087  0.4804378  0.2491151

 Al 
  0.7649040  0.7549861  0.0115489

 Al 
  0.5035902  0.9918408  0.4994307

 Al 
  0.5088176  0.2413829  0.7504604

 Al 
  0.7546173  0.9993837  0.7577793

 Al 
  0.7408210  0.2392567  0.4972662

 Al 
  0.4602582  0.5009529  0.4902431

 Al 
  0.5126726  0.7502289  0.7571482

 Al 
  0.7518427  0.5215064  0.7660537

 Al 
  0.7273712  0.7277375  0.5070801

