32 
charge = 0 
 Al 
  0.0088040  0.0146342  0.0092260

 Al 
  0.9956648  0.2614945  0.2404522

 Al 
  0.2497995  0.9896725  0.2557126

 Al 
  0.2506002  0.2475014  0.9918308

 Al 
  0.5029652  0.9870600  0.0070751

 Al 
  0.4892530  0.2269368  0.2332471

 Al 
  0.7578004  0.0192800  0.2596084

 Al 
  0.7525085  0.2425400  0.9952799

 Al 
  0.9987463  0.4798092  0.9962428

 Al 
  0.9908061  0.7425078  0.2509876

 Al 
  0.2512858  0.5079031  0.2298314

 Al 
  0.2473999  0.7664039  0.9905636

 Al 
  0.9946500  0.0022214  0.5001200

 Al 
  0.9957279  0.2643087  0.7499356

 Al 
  0.2667244  0.0083449  0.7497265

 Al 
  0.2511039  0.2413606  0.4884288

 Al 
  0.0102817  0.4827694  0.5039441

 Al 
  0.0020742  0.7665462  0.7654386

 Al 
  0.2425957  0.5056953  0.7624202

 Al 
  0.2344500  0.7676897  0.5044503

 Al 
  0.5022499  0.5132283  0.9926538

 Al 
  0.5288253  0.7533204  0.2407727

 Al 
  0.7507722  0.4790976  0.2498292

 Al 
  0.7652851  0.7572348  0.0099908

 Al 
  0.5041434  0.9940090  0.5015432

 Al 
  0.5087817  0.2394349  0.7499715

 Al 
  0.7539986  0.0020779  0.7585454

 Al 
  0.7405401  0.2402195  0.4964036

 Al 
  0.4598077  0.4961190  0.4875996

 Al 
  0.5129672  0.7499666  0.7586431

 Al 
  0.7518019  0.5218789  0.7642307

 Al 
  0.7275853  0.7287337  0.5052931

