32 
charge = 0 
 Al 
  0.0088350  0.0143161  0.0070974

 Al 
  0.9978912  0.2617098  0.2417863

 Al 
  0.2497463  0.9890451  0.2561829

 Al 
  0.2522103  0.2464482  0.9913692

 Al 
  0.5017153  0.9860180  0.0068623

 Al 
  0.4886553  0.2260928  0.2335132

 Al 
  0.7561519  0.0202539  0.2591530

 Al 
  0.7532313  0.2436513  0.9948468

 Al 
  0.0002190  0.4796817  0.9977402

 Al 
  0.9902282  0.7423358  0.2501002

 Al 
  0.2512623  0.5078882  0.2315108

 Al 
  0.2460547  0.7659311  0.9919447

 Al 
  0.9956982  0.0018761  0.5013378

 Al 
  0.9960225  0.2640117  0.7501436

 Al 
  0.2661477  0.0093275  0.7497302

 Al 
  0.2492686  0.2431031  0.4879239

 Al 
  0.0104017  0.4827434  0.5042226

 Al 
  0.0017078  0.7657814  0.7659930

 Al 
  0.2428147  0.5060418  0.7623373

 Al 
  0.2347433  0.7677318  0.5045542

 Al 
  0.5026682  0.5129053  0.9917677

 Al 
  0.5277610  0.7533959  0.2401861

 Al 
  0.7513700  0.4784738  0.2502364

 Al 
  0.7654745  0.7585045  0.0090701

 Al 
  0.5044354  0.9952057  0.5026979

 Al 
  0.5087236  0.2384832  0.7497376

 Al 
  0.7536855  0.0035642  0.7589538

 Al 
  0.7404213  0.2409089  0.4960212

 Al 
  0.4597334  0.4934298  0.4861665

 Al 
  0.5129882  0.7498800  0.7594463

 Al 
  0.7518390  0.5218987  0.7631429

 Al 
  0.7278947  0.7293612  0.5042250

