32 
charge = 0 
 Al 
  0.0088473  0.0141367  0.0059774

 Al 
  0.9990854  0.2617828  0.2425078

 Al 
  0.2497042  0.9887209  0.2564106

 Al 
  0.2530605  0.2459000  0.9911341

 Al 
  0.5010717  0.9855032  0.0067249

 Al 
  0.4883533  0.2256980  0.2336691

 Al 
  0.7553005  0.0207118  0.2588869

 Al 
  0.7535865  0.2442354  0.9946178

 Al 
  0.0009839  0.4796730  0.9985285

 Al 
  0.9899423  0.7422590  0.2496547

 Al 
  0.2512450  0.5078808  0.2323845

 Al 
  0.2453579  0.7656626  0.9926872

 Al 
  0.9962390  0.0016967  0.5019789

 Al 
  0.9961759  0.2638075  0.7502475

 Al 
  0.2658123  0.0098337  0.7497364

 Al 
  0.2483033  0.2439953  0.4876689

 Al 
  0.0104388  0.4827707  0.5043550

 Al 
  0.0015210  0.7653767  0.7662566

 Al 
  0.2429447  0.5062237  0.7622779

 Al 
  0.2349116  0.7677207  0.5046136

 Al 
  0.5028860  0.5127061  0.9913272

 Al 
  0.5271620  0.7534181  0.2399027

 Al 
  0.7516546  0.4781805  0.2504492

 Al 
  0.7655648  0.7591654  0.0085813

 Al 
  0.5045815  0.9958220  0.5032894

 Al 
  0.5086852  0.2380253  0.7496250

 Al 
  0.7535320  0.0043290  0.7591592

 Al 
  0.7403693  0.2413036  0.4958467

 Al 
  0.4597446  0.4920400  0.4854364

 Al 
  0.5129635  0.7498515  0.7598522

 Al 
  0.7518737  0.5218628  0.7625613

 Al 
  0.7280989  0.7297052  0.5036545

