32 
charge = 0 
 Al 
  0.0088746  0.0120563  0.9942132

 Al 
  0.0125353  0.2606492  0.2506992

 Al 
  0.2486337  0.9856059  0.2582038

 Al 
  0.2621294  0.2404683  0.9889931

 Al 
  0.4946686  0.9813970  0.0042832

 Al 
  0.4856331  0.2234456  0.2360019

 Al 
  0.7470261  0.0235917  0.2550802

 Al 
  0.7564601  0.2505977  0.9923135

 Al 
  0.0088845  0.4816791  0.0067311

 Al 
  0.9875365  0.7420041  0.2457935

 Al 
  0.2508712  0.5078907  0.2412405

 Al 
  0.2383149  0.7619041  0.0011831

 Al 
  0.0013725  0.9999319  0.5087248

 Al 
  0.9979432  0.2600663  0.7511695

 Al 
  0.2608646  0.0147084  0.7498107

 Al 
  0.2379103  0.2521818  0.4855378

 Al 
  0.0096666  0.4849785  0.5053500

 Al 
  0.9998057  0.7607903  0.7678147

 Al 
  0.2449879  0.5080565  0.7610415

 Al 
  0.2374697  0.7660896  0.5055047

 Al 
  0.5051025  0.5092743  0.9876801

 Al 
  0.5193047  0.7528427  0.2379164

 Al 
  0.7535431  0.4763081  0.2525568

 Al 
  0.7659893  0.7659559  0.0032003

 Al 
  0.5057250  0.0018328  0.5089736

 Al 
  0.5079031  0.2350131  0.7489357

 Al 
  0.7522833  0.0117890  0.7609314

 Al 
  0.7404250  0.2467563  0.4950126

 Al 
  0.4622345  0.4781273  0.4786892

 Al 
  0.5112804  0.7502141  0.7632679

 Al 
  0.7529367  0.5196810  0.7559502

 Al 
  0.7316866  0.7341134  0.4971957

