32 
charge = 0 
 Al 
  0.0088770  0.0131318  0.0002153

 Al 
  0.0054614  0.2617172  0.2463925

 Al 
  0.2493466  0.9871244  0.2574167

 Al 
  0.2574613  0.2431464  0.9900067

 Al 
  0.4978702  0.9831778  0.0057745

 Al 
  0.4869239  0.2241473  0.2346443

 Al 
  0.7510891  0.0225632  0.2572744

 Al 
  0.7551891  0.2472650  0.9934521

 Al 
  0.0048550  0.4801767  0.0025642

 Al 
  0.9886342  0.7419967  0.2475620

 Al 
  0.2511089  0.5078573  0.2367977

 Al 
  0.2418568  0.7640723  0.9966734

 Al 
  0.9988973  0.0008044  0.5052695

 Al 
  0.9969803  0.2623298  0.7507252

 Al 
  0.2637493  0.0123410  0.7497847

 Al 
  0.2432912  0.2483070  0.4864648

 Al 
  0.0103596  0.4833573  0.5049131

 Al 
  0.0006200  0.7632394  0.7673234

 Al 
  0.2437726  0.5071469  0.7618212

 Al 
  0.2359462  0.7673073  0.5049762

 Al 
  0.5039837  0.5113682  0.9893050

 Al 
  0.5237055  0.7533476  0.2386874

 Al 
  0.7528278  0.4769875  0.2515173

 Al 
  0.7659175  0.7625192  0.0060096

 Al 
  0.5052398  0.9988751  0.5061952

 Al 
  0.5083931  0.2360997  0.7491659

 Al 
  0.7528390  0.0081122  0.7601307

 Al 
  0.7402393  0.2436513  0.4952020

 Al 
  0.4603374  0.4850874  0.4819044

 Al 
  0.5124845  0.7498639  0.7617482

 Al 
  0.7522239  0.5212291  0.7594674

 Al 
  0.7295183  0.7316482  0.5006138

