32 
charge = 0 
 Al 
  0.0088746  0.0122098  0.9950943

 Al 
  0.0114648  0.2608943  0.2500545

 Al 
  0.2487686  0.9858163  0.2581060

 Al 
  0.2614363  0.2408420  0.9891268

 Al 
  0.4951327  0.9816049  0.0045431

 Al 
  0.4858089  0.2234741  0.2357742

 Al 
  0.7475967  0.0235112  0.2554465

 Al 
  0.7563041  0.2500854  0.9924719

 Al 
  0.0082867  0.4813833  0.0061222

 Al 
  0.9876788  0.7419794  0.2460188

 Al 
  0.2509146  0.5078771  0.2405995

 Al 
  0.2388298  0.7622717  0.0004901

 Al 
  0.0010358  0.0000569  0.5082125

 Al 
  0.9977860  0.2604512  0.7511064

 Al 
  0.2613534  0.0143830  0.7498131

 Al 
  0.2387159  0.2516682  0.4856368

 Al 
  0.0098238  0.4846468  0.5052918

 Al 
  0.9999146  0.7611764  0.7677986

 Al 
  0.2447787  0.5079291  0.7611826

 Al 
  0.2372024  0.7663395  0.5054119

 Al 
  0.5049391  0.5096443  0.9878793

 Al 
  0.5200200  0.7529565  0.2379882

 Al 
  0.7534763  0.4763650  0.2524120

 Al 
  0.7660066  0.7654547  0.0036248

 Al 
  0.5056705  0.0014158  0.5085850

 Al 
  0.5079909  0.2350923  0.7489481

 Al 
  0.7523526  0.0112692  0.7608336

 Al 
  0.7403681  0.2462452  0.4950015

 Al 
  0.4618360  0.4791322  0.4791211

 Al 
  0.5115168  0.7501349  0.7630872

 Al 
  0.7528031  0.5199817  0.7564972

 Al 
  0.7313140  0.7337075  0.4977204

