32 
charge = 0 
 Al 
  0.0088770  0.0125514  0.9970076

 Al 
  0.0091815  0.2613088  0.2486671

 Al 
  0.2490211  0.9862890  0.2578709

 Al 
  0.2599413  0.2416811  0.9894386

 Al 
  0.4961462  0.9821271  0.0050542

 Al 
  0.4862086  0.2236350  0.2353176

 Al 
  0.7488701  0.0232439  0.2561816

 Al 
  0.7559254  0.2490062  0.9928283

 Al 
  0.0069984  0.4808388  0.0047968

 Al 
  0.9880117  0.7419558  0.2465534

 Al 
  0.2509962  0.5078610  0.2391936

 Al 
  0.2399535  0.7630006  0.9990260

 Al 
  0.0002686  0.0003304  0.5071073

 Al 
  0.9974667  0.2612197  0.7509678

 Al 
  0.2623261  0.0136466  0.7498094

 Al 
  0.2404423  0.2504789  0.4859054

 Al 
  0.0100898  0.4840552  0.5051594

 Al 
  0.0001658  0.7619771  0.7676872

 Al 
  0.2443654  0.5076432  0.7614524

 Al 
  0.2366814  0.7667863  0.5052312

 Al 
  0.5045839  0.5103633  0.9883632

 Al 
  0.5214816  0.7531496  0.2381986

 Al 
  0.7532820  0.4765432  0.2520865

 Al 
  0.7660079  0.7643619  0.0045307

 Al 
  0.5055319  0.0004888  0.5077174

 Al 
  0.5081605  0.2353720  0.7490038

 Al 
  0.7525184  0.0101146  0.7605948

 Al 
  0.7402839  0.2452082  0.4950275

 Al 
  0.4611356  0.4813338  0.4801124

 Al 
  0.5119499  0.7499988  0.7626380

 Al 
  0.7525506  0.5205373  0.7576407

 Al 
  0.7305752  0.7328882  0.4988293

