32 
charge = 0 
 Al 
  0.0088758  0.0123756  0.9960262

 Al 
  0.0103460  0.2611158  0.2493763

 Al 
  0.2488986  0.9860440  0.2579947

 Al 
  0.2607062  0.2412467  0.9892753

 Al 
  0.4956252  0.9818487  0.0048005

 Al 
  0.4860007  0.2235372  0.2355465

 Al 
  0.7482117  0.0233949  0.2558141

 Al 
  0.7561259  0.2495545  0.9926427

 Al 
  0.0076580  0.4811024  0.0054775

 Al 
  0.9878372  0.7419633  0.2462725

 Al 
  0.2509566  0.5078672  0.2399176

 Al 
  0.2393755  0.7626368  0.9997698

 Al 
  0.0006683  0.0001893  0.5076729

 Al 
  0.9976264  0.2608361  0.7510396

 Al 
  0.2618410  0.0140290  0.7498131

 Al 
  0.2395599  0.2511002  0.4857594

 Al 
  0.0099649  0.4843399  0.5052287

 Al 
  0.0000347  0.7615724  0.7677553

 Al 
  0.2445708  0.5077917  0.7613187

 Al 
  0.2369400  0.7665722  0.5053215

 Al 
  0.5047659  0.5100082  0.9881070

 Al 
  0.5207465  0.7530593  0.2380823

 Al 
  0.7533897  0.4764430  0.2522548

 Al 
  0.7660128  0.7649225  0.0040691

 Al 
  0.5056074  0.0009690  0.5081667

 Al 
  0.5080776  0.2352111  0.7489703

 Al 
  0.7524306  0.0107111  0.7607222

 Al 
  0.7403210  0.2457279  0.4950064

 Al 
  0.4614697  0.4802015  0.4795951

 Al 
  0.5117408  0.7500631  0.7628768

 Al 
  0.7526744  0.5202676  0.7570603

 Al 
  0.7309428  0.7332991  0.4982649

