32 
charge = 0 
 Al 
  0.0089352  0.0111282  0.9878447

 Al 
  0.0207118  0.2569068  0.2553017

 Al 
  0.2469729  0.9843844  0.2586369

 Al 
  0.2672776  0.2382852  0.9884028

 Al 
  0.4912925  0.9809725  0.0015742

 Al 
  0.4845750  0.2247438  0.2382432

 Al 
  0.7433221  0.0228182  0.2514950

 Al 
  0.7570479  0.2550517  0.9914361

 Al 
  0.0135043  0.4851975  0.0111071

 Al 
  0.9868063  0.7427306  0.2448802

 Al 
  0.2504010  0.5082657  0.2457787

 Al 
  0.2346196  0.7580763  0.0068945

 Al 
  0.0032300  0.9990310  0.5126677

 Al 
  0.9995854  0.2564267  0.7515841

 Al 
  0.2559069  0.0165276  0.7494777

 Al 
  0.2318969  0.2547300  0.4860155

 Al 
  0.0072991  0.4895315  0.5057633

 Al 
  0.9992723  0.7572212  0.7666811

 Al 
  0.2471845  0.5088176  0.7594228

 Al 
  0.2404671  0.7626429  0.5065517

 Al 
  0.5063301  0.5051755  0.9870192

 Al 
  0.5125043  0.7511175  0.2382679

 Al 
  0.7533823  0.4767140  0.2533686

 Al 
  0.7651490  0.7695659  0.9998329

 Al 
  0.5057250  0.0044837  0.5113831

 Al 
  0.5069068  0.2362247  0.7492723

 Al 
  0.7519640  0.0151837  0.7610923

 Al 
  0.7415598  0.2516039  0.4959024

 Al 
  0.4679112  0.4710051  0.4764591

 Al 
  0.5083127  0.7513180  0.7635686

 Al 
  0.7544243  0.5159695  0.7512140

 Al 
  0.7355205  0.7381503  0.4928605

