32 
charge = 0 
 Al 
  0.0088919  0.0113744  0.9899213

 Al 
  0.0179434  0.2586815  0.2538525

 Al 
  0.2477105  0.9846975  0.2585639

 Al 
  0.2655636  0.2388446  0.9884808

 Al 
  0.4924125  0.9808128  0.0026843

 Al 
  0.4848671  0.2239060  0.2373459

 Al 
  0.7444211  0.0234431  0.2529330

 Al 
  0.7569972  0.2533686  0.9916415

 Al 
  0.0119029  0.4836778  0.0096815

 Al 
  0.9869685  0.7423358  0.2449804

 Al 
  0.2505990  0.5080602  0.2443060

 Al 
  0.2358250  0.7596678  0.0048314

 Al 
  0.0027870  0.9993342  0.5113064

 Al 
  0.9988949  0.2578350  0.7514578

 Al 
  0.2579254  0.0160871  0.7496881

 Al 
  0.2338981  0.2542164  0.4854809

 Al 
  0.0084204  0.4874251  0.5056222

 Al 
  0.9993713  0.7586246  0.7674088

 Al 
  0.2462749  0.5086171  0.7601245

 Al 
  0.2391775  0.7642357  0.5061012

 Al 
  0.5059106  0.5069180  0.9870229

 Al 
  0.5151923  0.7519380  0.2379103

 Al 
  0.7536013  0.4763588  0.2531756

 Al 
  0.7656304  0.7683877  0.0010210

 Al 
  0.5058339  0.0037127  0.5107024

 Al 
  0.5073350  0.2353262  0.7490471

 Al 
  0.7520247  0.0141713  0.7612012

 Al 
  0.7409794  0.2497042  0.4953888

 Al 
  0.4652530  0.4733083  0.4769355

 Al 
  0.5096369  0.7508156  0.7637605

 Al 
  0.7538006  0.5176093  0.7529949

 Al 
  0.7339513  0.7365031  0.4944322

