32 
charge = 0 
 Al 
  0.0088807  0.0115564  0.9911749

 Al 
  0.0163247  0.2594278  0.2529367

 Al 
  0.2480397  0.9849376  0.2584823

 Al 
  0.2645475  0.2392740  0.9885971

 Al 
  0.4930746  0.9808896  0.0032239

 Al 
  0.4850738  0.2236412  0.2369016

 Al 
  0.7451450  0.0236053  0.2536421

 Al 
  0.7568870  0.2524937  0.9918148

 Al 
  0.0109945  0.4829736  0.0088213

 Al 
  0.9871083  0.7421910  0.2451562

 Al 
  0.2506930  0.5079860  0.2434186

 Al 
  0.2365514  0.7604240  0.0037040

 Al 
  0.0024231  0.9995087  0.5105304

 Al 
  0.9985731  0.2585615  0.7513762

 Al 
  0.2589092  0.0157307  0.7497512

 Al 
  0.2350886  0.2537238  0.4853930

 Al 
  0.0088919  0.4865205  0.5055418

 Al 
  0.9994765  0.7593263  0.7676377

 Al 
  0.2458393  0.5084674  0.7604450

 Al 
  0.2385847  0.7649201  0.5058945

 Al 
  0.5056705  0.5077311  0.9871467

 Al 
  0.5165363  0.7522821  0.2378360

 Al 
  0.7536397  0.4762722  0.2530147

 Al 
  0.7657975  0.7676786  0.0016843

 Al 
  0.5058351  0.0031941  0.5102309

 Al 
  0.5075330  0.2350799  0.7489778

 Al 
  0.7520841  0.0135068  0.7611690

 Al 
  0.7407542  0.2487426  0.4952082

 Al 
  0.4641255  0.4747055  0.4773699

 Al 
  0.5102272  0.7505940  0.7637035

 Al 
  0.7535023  0.5183481  0.7539280

 Al 
  0.7331914  0.7357086  0.4952874

