32 
charge = 0 
 Al 
  0.0089501  0.0110886  0.9874029

 Al 
  0.0213170  0.2563982  0.2555876

 Al 
  0.2467700  0.9843386  0.2586382

 Al 
  0.2676501  0.2382048  0.9884164

 Al 
  0.4910475  0.9810740  0.0012871

 Al 
  0.4845243  0.2250161  0.2384733

 Al 
  0.7431093  0.0226016  0.2511249

 Al 
  0.7570294  0.2554688  0.9914138

 Al 
  0.0138706  0.4856034  0.0114116

 Al 
  0.9867865  0.7428531  0.2449037

 Al 
  0.2503490  0.5083288  0.2460992

 Al 
  0.2343609  0.7576556  0.0073808

 Al 
  0.0032870  0.9989617  0.5129771

 Al 
  0.9997723  0.2560814  0.7516088

 Al 
  0.2553834  0.0165858  0.7494060

 Al 
  0.2314675  0.2547696  0.4862309

 Al 
  0.0069786  0.4901292  0.5057955

 Al 
  0.9992698  0.7568610  0.7664423

 Al 
  0.2474246  0.5088473  0.7592310

 Al 
  0.2408173  0.7621912  0.5066742

 Al 
  0.5064267  0.5047077  0.9870662

 Al 
  0.5118162  0.7508811  0.2383991

 Al 
  0.7533018  0.4768415  0.2533909

 Al 
  0.7649955  0.7698171  0.9995570

 Al 
  0.5056755  0.0046285  0.5115056

 Al 
  0.5067893  0.2365341  0.7493453

 Al 
  0.7519578  0.0153804  0.7610292

 Al 
  0.7417368  0.2520803  0.4960621

 Al 
  0.4686699  0.4705138  0.4764182

 Al 
  0.5079476  0.7514541  0.7634585

 Al 
  0.7545852  0.5155203  0.7507760

 Al 
  0.7359302  0.7385835  0.4924880

