32 
charge = 0 
 Al 
  0.0091394  0.0110490  0.9848003

 Al 
  0.0250619  0.2511955  0.2567818

 Al 
  0.2447762  0.9844339  0.2584600

 Al 
  0.2699210  0.2383954  0.9890414

 Al 
  0.4894176  0.9828103  0.9987439

 Al 
  0.4844191  0.2281694  0.2405252

 Al 
  0.7421440  0.0199495  0.2478491

 Al 
  0.7564737  0.2589760  0.9916601

 Al 
  0.0164472  0.4893396  0.0132518

 Al 
  0.9868781  0.7442936  0.2458071

 Al 
  0.2498824  0.5089501  0.2483169

 Al 
  0.2327744  0.7537399  0.0110329

 Al 
  0.0029664  0.9984073  0.5151403

 Al 
  0.0015804  0.2533699  0.7517425

 Al 
  0.2507363  0.0162702  0.7484778

 Al 
  0.2290023  0.2539676  0.4894325

 Al 
  0.0037498  0.4961957  0.5059972

 Al 
  0.9995928  0.7536001  0.7636020

 Al 
  0.2496485  0.5087731  0.7573350

 Al 
  0.2442503  0.7575875  0.5078387

 Al 
  0.5071642  0.5003304  0.9881070

 Al 
  0.5057324  0.7484419  0.2401255

 Al 
  0.7523130  0.4784751  0.2531521

 Al 
  0.7631553  0.7712972  0.9974927

 Al 
  0.5049577  0.0052497  0.5118472

 Al 
  0.5056618  0.2403421  0.7501510

 Al 
  0.7519751  0.0162814  0.7599191

 Al 
  0.7437627  0.2560170  0.4978417

 Al 
  0.4764752  0.4675165  0.4771979

 Al 
  0.5043636  0.7526966  0.7616059

 Al 
  0.7559527  0.5112012  0.7471264

 Al 
  0.7396206  0.7426811  0.4895995

