32 
charge = 0 
 Al 
  0.0090552  0.0110118  0.9855886

 Al 
  0.0238837  0.2534033  0.2565690

 Al 
  0.2456079  0.9842990  0.2585652

 Al 
  0.2692132  0.2381442  0.9886899

 Al 
  0.4899671  0.9819601  0.9997562

 Al 
  0.4843931  0.2267759  0.2397010

 Al 
  0.7423642  0.0211400  0.2491572

 Al 
  0.7567645  0.2576110  0.9914732

 Al 
  0.0155463  0.4878261  0.0126801

 Al 
  0.9867940  0.7436464  0.2453171

 Al 
  0.2500693  0.5087001  0.2475261

 Al 
  0.2332731  0.7553376  0.0097025

 Al 
  0.0032523  0.9986214  0.5143891

 Al 
  0.0008279  0.2543773  0.7517041

 Al 
  0.2525890  0.0165561  0.7489048

 Al 
  0.2297225  0.2544911  0.4878942

 Al 
  0.0051074  0.4936278  0.5059378

 Al 
  0.9993985  0.7549218  0.7648706

 Al 
  0.2487389  0.5088708  0.7581333

 Al 
  0.2428135  0.7595428  0.5073598

 Al 
  0.5068883  0.5021199  0.9875761

 Al 
  0.5081667  0.7494815  0.2393322

 Al 
  0.7527536  0.4777239  0.2533340

 Al 
  0.7639857  0.7708517  0.9982501

 Al 
  0.5052980  0.0051186  0.5118497

 Al 
  0.5061296  0.2386231  0.7498045

 Al 
  0.7519615  0.0160735  0.7604710

 Al 
  0.7428580  0.2545084  0.4970682

 Al 
  0.4731523  0.4684595  0.4766658

 Al 
  0.5058611  0.7522029  0.7625118

 Al 
  0.7554267  0.5129882  0.7485422

 Al 
  0.7381343  0.7409868  0.4906750

