32 
charge = 0 
 Al 
  0.0090082  0.0110205  0.9862383

 Al 
  0.0229469  0.2546978  0.2562683

 Al 
  0.2461042  0.9842768  0.2586097

 Al 
  0.2686451  0.2380984  0.9885365

 Al 
  0.4903718  0.9815294  0.0003898

 Al 
  0.4844203  0.2259900  0.2391911

 Al 
  0.7426031  0.0218021  0.2499715

 Al 
  0.7569044  0.2567373  0.9914138

 Al 
  0.0149027  0.4868955  0.0122209

 Al 
  0.9867705  0.7432899  0.2450931

 Al 
  0.2501856  0.5085417  0.2469816

 Al 
  0.2336691  0.7563116  0.0087916

 Al 
  0.0033303  0.9987575  0.5138496

 Al 
  0.0003787  0.2550554  0.7516719

 Al 
  0.2537473  0.0166316  0.7491349

 Al 
  0.2303426  0.2546941  0.4871046

 Al 
  0.0059131  0.4921180  0.5058858

 Al 
  0.9993193  0.7557312  0.7655772

 Al 
  0.2481857  0.5088882  0.7586023

 Al 
  0.2419608  0.7606876  0.5070702

 Al 
  0.5067064  0.5032115  0.9873162

 Al 
  0.5096790  0.7500879  0.2389028

 Al 
  0.7530011  0.4773192  0.2533909

 Al 
  0.7644411  0.7704804  0.9987624

 Al 
  0.5054775  0.0049663  0.5117643

 Al 
  0.5064106  0.2376751  0.7496015

 Al 
  0.7519553  0.0158507  0.7607445

 Al 
  0.7423581  0.2535246  0.4966239

 Al 
  0.4712118  0.4692057  0.4764739

 Al 
  0.5067521  0.7518910  0.7629721

 Al 
  0.7550839  0.5140637  0.7494505

 Al 
  0.7372160  0.7399720  0.4913940

