32 
charge = 0 
 Al 
  0.0091691  0.0110737  0.9845874

 Al 
  0.0253911  0.2503861  0.2567868

 Al 
  0.2444768  0.9845070  0.2584154

 Al 
  0.2701166  0.2385290  0.9891924

 Al 
  0.4892505  0.9831481  0.9983912

 Al 
  0.4844463  0.2286916  0.2408173

 Al 
  0.7421056  0.0194990  0.2473887

 Al 
  0.7563561  0.2594476  0.9917492

 Al 
  0.0167294  0.4898743  0.0134102

 Al 
  0.9869177  0.7445411  0.2460113

 Al 
  0.2498181  0.5090330  0.2485805

 Al 
  0.2326345  0.7531719  0.0114660

 Al 
  0.0028241  0.9983305  0.5153730

 Al 
  0.0018526  0.2530395  0.7517524

 Al 
  0.2500891  0.0161267  0.7483132

 Al 
  0.2288204  0.2537387  0.4900450

 Al 
  0.0032585  0.4971338  0.5060096

 Al 
  0.9996795  0.7531273  0.7631231

 Al 
  0.2499752  0.5087186  0.7570417

 Al 
  0.2447750  0.7568697  0.5080095

 Al 
  0.5072583  0.4996918  0.9883211

 Al 
  0.5048735  0.7480595  0.2404312

 Al 
  0.7521484  0.4787659  0.2530642

 Al 
  0.7628360  0.7714135  0.9972415

 Al 
  0.5048240  0.0052695  0.5118101

 Al 
  0.5054923  0.2409955  0.7502772

 Al 
  0.7519776  0.0163185  0.7596963

 Al 
  0.7441092  0.2565257  0.4981288

 Al 
  0.4776954  0.4672491  0.4774429

 Al 
  0.5038204  0.7528662  0.7612433

 Al 
  0.7561296  0.5105589  0.7466375

 Al 
  0.7401453  0.7432961  0.4892419

