32 
charge = 0 
 Al 
  0.0092644  0.0111752  0.9841122

 Al 
  0.0261683  0.2477600  0.2565913

 Al 
  0.2435127  0.9848102  0.2582607

 Al 
  0.2705621  0.2390872  0.9897517

 Al 
  0.4887951  0.9843287  0.9972897

 Al 
  0.4845948  0.2304168  0.2417479

 Al 
  0.7420945  0.0180003  0.2459470

 Al 
  0.7559453  0.2608930  0.9921019

 Al 
  0.0175053  0.4915573  0.0137840

 Al 
  0.9870737  0.7453888  0.2467489

 Al 
  0.2496151  0.5092607  0.2493911

 Al 
  0.2323004  0.7513687  0.0127160

 Al 
  0.0022524  0.9980855  0.5160054

 Al 
  0.0027276  0.2520816  0.7517759

 Al 
  0.2480731  0.0155438  0.7477575

 Al 
  0.2284726  0.2529095  0.4921823

 Al 
  0.0016831  0.5001819  0.5060170

 Al 
  0.9999988  0.7516200  0.7615267

 Al 
  0.2510235  0.5084835  0.7560839

 Al 
  0.2464841  0.7545245  0.5085466

 Al 
  0.5075491  0.4976734  0.9890773

 Al 
  0.5021645  0.7468145  0.2414695

 Al 
  0.7516125  0.4797646  0.2527140

 Al 
  0.7617507  0.7716549  0.9964915

 Al 
  0.5043649  0.0052708  0.5115885

 Al 
  0.5049490  0.2431872  0.7506732

 Al 
  0.7519764  0.0163346  0.7589043

 Al 
  0.7452948  0.2580442  0.4990656

 Al 
  0.4816816  0.4666031  0.4783884

 Al 
  0.5020605  0.7533798  0.7599809

 Al 
  0.7566482  0.5085008  0.7451327

 Al 
  0.7418011  0.7452935  0.4881763

