32 
charge = 0 
 Al 
  0.0092322  0.0111368  0.9842421

 Al 
  0.0259455  0.2486671  0.2566915

 Al 
  0.2438431  0.9846951  0.2583164

 Al 
  0.2704383  0.2388756  0.9895475

 Al 
  0.4889387  0.9839092  0.9976622

 Al 
  0.4845342  0.2298166  0.2414299

 Al 
  0.7420821  0.0185226  0.2464371

 Al 
  0.7560913  0.2604067  0.9919707

 Al 
  0.0172603  0.4909856  0.0136775

 Al 
  0.9870155  0.7450894  0.2464828

 Al 
  0.2496844  0.5091901  0.2491164

 Al 
  0.2323969  0.7519838  0.0123100

 Al 
  0.0024665  0.9981709  0.5158074

 Al 
  0.0024281  0.2523934  0.7517685

 Al 
  0.2487550  0.0157641  0.7479531

 Al 
  0.2285543  0.2532078  0.4914212

 Al 
  0.0022227  0.4991300  0.5060207

 Al 
  0.9998824  0.7521360  0.7620836

 Al 
  0.2506633  0.5085738  0.7564168

 Al 
  0.2458938  0.7553364  0.5083634

 Al 
  0.5074501  0.4983615  0.9888075

 Al 
  0.5030877  0.7472452  0.2411044

 Al 
  0.7517982  0.4794107  0.2528452

 Al 
  0.7621331  0.7715930  0.9967403

 Al 
  0.5045282  0.0052794  0.5116814

 Al 
  0.5051359  0.2424199  0.7505383

 Al 
  0.7519789  0.0163445  0.7591877

 Al 
  0.7448753  0.2575417  0.4987414

 Al 
  0.4803030  0.4667912  0.4780382

 Al 
  0.5026669  0.7532090  0.7604302

 Al 
  0.7564786  0.5092062  0.7456401

 Al 
  0.7412381  0.7446030  0.4885278

