32 
charge = 0 
 Al 
  0.0091097  0.0110304  0.9850379

 Al 
  0.0247005  0.2519677  0.2567447

 Al 
  0.2450658  0.9843758  0.2584996

 Al 
  0.2697057  0.2382865  0.9889077

 Al 
  0.4895933  0.9824996  0.9990892

 Al 
  0.4844005  0.2276756  0.2402418

 Al 
  0.7421996  0.0203728  0.2482971

 Al 
  0.7565814  0.2585132  0.9915846

 Al 
  0.0161564  0.4888199  0.0130761

 Al 
  0.9868435  0.7440609  0.2456227

 Al 
  0.2499468  0.5088659  0.2480546

 Al 
  0.2329278  0.7542906  0.0105948

 Al 
  0.0030852  0.9984803  0.5148978

 Al 
  0.0013192  0.2537028  0.7517313

 Al 
  0.2513700  0.0163890  0.7486313

 Al 
  0.2292139  0.2541706  0.4888706

 Al 
  0.0042226  0.4952973  0.5059799

 Al 
  0.9995186  0.7540555  0.7640525

 Al 
  0.2493342  0.5088164  0.7576135

 Al 
  0.2437491  0.7582731  0.5076741

 Al 
  0.5070714  0.5009480  0.9879103

 Al 
  0.5065677  0.7488058  0.2398408

 Al 
  0.7524689  0.4782040  0.2532263

 Al 
  0.7634523  0.7711636  0.9977439

 Al 
  0.5050814  0.0052176  0.5118657

 Al 
  0.5058240  0.2397282  0.7500297

 Al 
  0.7519702  0.0162282  0.7601220

 Al 
  0.7434384  0.2555096  0.4975694

 Al 
  0.4753106  0.4678073  0.4769875

 Al 
  0.5048859  0.7525283  0.7619375

 Al 
  0.7557769  0.5118212  0.7476066

 Al 
  0.7391095  0.7420920  0.4899584

