32 
charge = 0 
 Al 
  0.0093547  0.0113088  0.9838993

 Al 
  0.0266002  0.2449099  0.2560888

 Al 
  0.2424892  0.9852334  0.2580788

 Al 
  0.2707737  0.2398631  0.9904633

 Al 
  0.4884214  0.9857260  0.9961598

 Al 
  0.4848411  0.2323288  0.2427417

 Al 
  0.7422256  0.0163309  0.2444458

 Al 
  0.7554676  0.2623434  0.9925721

 Al 
  0.0181402  0.4933060  0.0139894

 Al 
  0.9872779  0.7463789  0.2476499

 Al 
  0.2494060  0.5094228  0.2502537

 Al 
  0.2321147  0.7494777  0.0138483

 Al 
  0.0014727  0.9978132  0.5165103

 Al 
  0.0036619  0.2512190  0.7517982

 Al 
  0.2460175  0.0147332  0.7471301

 Al 
  0.2284392  0.2519133  0.4947206

 Al 
  0.0000136  0.5034850  0.5059613

 Al 
  0.0004047  0.7500099  0.7597396

 Al 
  0.2521534  0.5081308  0.7550245

 Al 
  0.2483565  0.7519541  0.5091010

 Al 
  0.5078461  0.4955646  0.9899807

 Al 
  0.4993218  0.7454544  0.2426600

 Al 
  0.7510297  0.4809341  0.2522388

 Al 
  0.7604921  0.7717106  0.9957539

 Al 
  0.5038278  0.0051990  0.5112012

 Al 
  0.5043674  0.2456562  0.7510754

 Al 
  0.7519479  0.0162195  0.7579452

 Al 
  0.7466858  0.2594896  0.5000829

 Al 
  0.4860452  0.4662145  0.4796334

 Al 
  0.5001547  0.7538760  0.7584872

 Al 
  0.7571246  0.5063091  0.7436080

 Al 
  0.7435275  0.7474803  0.4871553

