32 
charge = 0 
 Al 
  0.0094377  0.0115019  0.9840441

 Al 
  0.0266088  0.2410438  0.2550134

 Al 
  0.2411403  0.9859351  0.2578189

 Al 
  0.2706500  0.2411626  0.9915982

 Al 
  0.4880736  0.9877927  0.9947156

 Al 
  0.4853151  0.2349785  0.2440894

 Al 
  0.7425870  0.0140142  0.2424892

 Al 
  0.7547980  0.2641268  0.9933419

 Al 
  0.0186798  0.4955572  0.0139807

 Al 
  0.9876132  0.7478516  0.2490124

 Al 
  0.2491337  0.5094525  0.2514851

 Al 
  0.2321308  0.7470212  0.0150525

 Al 
  0.0001794  0.9974135  0.5169088

 Al 
  0.0048946  0.2503280  0.7518316

 Al 
  0.2434298  0.0133434  0.7462539

 Al 
  0.2288897  0.2504851  0.4984766

 Al 
  0.9978281  0.5079637  0.5057720

 Al 
  0.0010346  0.7478479  0.7572360

 Al 
  0.2536855  0.5074873  0.7535382

 Al 
  0.2509455  0.7484147  0.5097965

 Al 
  0.5082286  0.4928444  0.9913333

 Al 
  0.4955683  0.7435931  0.2443753

 Al 
  0.7502475  0.4826778  0.2514504

 Al 
  0.7586456  0.7714692  0.9948258

 Al 
  0.5030357  0.0050394  0.5104636

 Al 
  0.5035914  0.2491275  0.7515531

 Al 
  0.7518502  0.0158928  0.7564848

 Al 
  0.7487810  0.2611257  0.5014529

 Al 
  0.4920425  0.4661465  0.4816643

 Al 
  0.4975645  0.7544453  0.7562806

 Al 
  0.7576234  0.5033959  0.7416885

 Al 
  0.7457688  0.7505210  0.4859722

