32 
charge = 0 
 Al 
  0.0094525  0.0115910  0.9842941

 Al 
  0.0263836  0.2392085  0.2543488

 Al 
  0.2405215  0.9863150  0.2576902

 Al 
  0.2704136  0.2418791  0.9922157

 Al 
  0.4879684  0.9888446  0.9940634

 Al 
  0.4856010  0.2362618  0.2447379

 Al 
  0.7428271  0.0128966  0.2415833

 Al 
  0.7544812  0.2648953  0.9937614

 Al 
  0.0187961  0.4965732  0.0138619

 Al 
  0.9877989  0.7486152  0.2497154

 Al 
  0.2490038  0.5093646  0.2521224

 Al 
  0.2322546  0.7459049  0.0154881

 Al 
  0.9994691  0.9972043  0.5169732

 Al 
  0.0054601  0.2500297  0.7518539

 Al 
  0.2422875  0.0125501  0.7458319

 Al 
  0.2293067  0.2497921  0.5003861

 Al 
  0.9968306  0.5100911  0.5056272

 Al 
  0.0013638  0.7468232  0.7560096

 Al 
  0.2544169  0.5071036  0.7528043

 Al 
  0.2522029  0.7467056  0.5101010

 Al 
  0.5084018  0.4916217  0.9920338

 Al 
  0.4938159  0.7427021  0.2452341

 Al 
  0.7498824  0.4835813  0.2510136

 Al 
  0.7577014  0.7712155  0.9944000

 Al 
  0.5026298  0.0049515  0.5100255

 Al 
  0.5032288  0.2508230  0.7517388

 Al 
  0.7517734  0.0156725  0.7557225

 Al 
  0.7498824  0.2617556  0.5020940

 Al 
  0.4949297  0.4663098  0.4827806

 Al 
  0.4963294  0.7546693  0.7551569

 Al 
  0.7577929  0.5020383  0.7408358

 Al 
  0.7467910  0.7520098  0.4854958

