32 
charge = 0 
 Al 
  0.0093881  0.0117519  0.9853510

 Al 
  0.0252698  0.2352210  0.2525160

 Al 
  0.2392654  0.9872432  0.2573920

 Al 
  0.2693802  0.2437342  0.9938147

 Al 
  0.4879016  0.9913371  0.9927355

 Al 
  0.4864103  0.2391528  0.2462069

 Al 
  0.7435214  0.0104005  0.2396379

 Al 
  0.7538228  0.2663395  0.9948344

 Al 
  0.0186315  0.4986251  0.0132914

 Al 
  0.9882988  0.7505012  0.2513824

 Al 
  0.2487006  0.5087966  0.2537201

 Al 
  0.2328820  0.7436216  0.0160660

 Al 
  0.9976536  0.9966796  0.5167442

 Al 
  0.0066222  0.2497562  0.7519281

 Al 
  0.2400475  0.0103906  0.7449012

 Al 
  0.2307646  0.2482872  0.5048748

 Al 
  0.9947812  0.5147332  0.5051309

 Al 
  0.0021595  0.7445770  0.7532177

 Al 
  0.2560344  0.5060170  0.7511051

 Al 
  0.2550480  0.7428853  0.5106703

 Al 
  0.5087397  0.4891750  0.9937528

 Al 
  0.4900488  0.7407480  0.2472439

 Al 
  0.7491077  0.4858076  0.2498837

 Al 
  0.7554180  0.7702502  0.9934644

 Al 
  0.5016410  0.0047485  0.5088164

 Al 
  0.5024553  0.2546433  0.7520036

 Al 
  0.7514962  0.0150228  0.7538439

 Al 
  0.7526583  0.2626863  0.5034454

 Al 
  0.5013737  0.4672516  0.4856765

 Al 
  0.4936278  0.7550257  0.7524925

 Al 
  0.7579625  0.4991547  0.7391429

 Al 
  0.7488837  0.7554341  0.4847149

