32 
charge = 0 
 Al 
  0.0093164  0.0117766  0.9859165

 Al 
  0.0246448  0.2339067  0.2517598

 Al 
  0.2388954  0.9875848  0.2572855

 Al 
  0.2688134  0.2444805  0.9944644

 Al 
  0.4879424  0.9922504  0.9923284

 Al 
  0.4867643  0.2401626  0.2467266

 Al 
  0.7438134  0.0095379  0.2389919

 Al 
  0.7536261  0.2667207  0.9952601

 Al 
  0.0183976  0.4992414  0.0129758

 Al 
  0.9885117  0.7512301  0.2519875

 Al 
  0.2485793  0.5084266  0.2543537

 Al 
  0.2332496  0.7429261  0.0161056

 Al 
  0.9969420  0.9964754  0.5165078

 Al 
  0.0069749  0.2498305  0.7519652

 Al 
  0.2394052  0.0094723  0.7445881

 Al 
  0.2314737  0.2477984  0.5064960

 Al 
  0.9941538  0.5162801  0.5048822

 Al 
  0.0024528  0.7438209  0.7522375

 Al 
  0.2565838  0.5055418  0.7504950

 Al 
  0.2560455  0.7415685  0.5108151

 Al 
  0.5088300  0.4884647  0.9944149

 Al 
  0.4888087  0.7400958  0.2479741

 Al 
  0.7488614  0.4866715  0.2494307

 Al 
  0.7545530  0.7697478  0.9931377

 Al 
  0.5012648  0.0046817  0.5083065

 Al 
  0.5022066  0.2559663  0.7520234

 Al 
  0.7513527  0.0147332  0.7531211

 Al 
  0.7537622  0.2628001  0.5038699

 Al 
  0.5035976  0.4678246  0.4868459

 Al 
  0.4927256  0.7550889  0.7515160

 Al 
  0.7579340  0.4982278  0.7386503

 Al 
  0.7495198  0.7566655  0.4845676

