32 
charge = 0 
 Al 
  0.0092693  0.0117791  0.9862259

 Al 
  0.0242983  0.2333102  0.2513824

 Al 
  0.2387394  0.9877481  0.2572348

 Al 
  0.2685003  0.2448530  0.9947911

 Al 
  0.4879758  0.9926897  0.9921501

 Al 
  0.4869474  0.2406378  0.2469742

 Al 
  0.7439595  0.0091344  0.2386936

 Al 
  0.7535431  0.2668717  0.9954730

 Al 
  0.0182454  0.4995075  0.0128013

 Al 
  0.9886219  0.7515903  0.2522746

 Al 
  0.2485162  0.5082088  0.2546693

 Al 
  0.2334563  0.7426217  0.0160883

 Al 
  0.9965918  0.9963764  0.5163618

 Al 
  0.0071271  0.2499035  0.7519863

 Al 
  0.2391342  0.0090020  0.7444446

 Al 
  0.2318511  0.2475781  0.5072657

 Al 
  0.9938803  0.5169893  0.5047473

 Al 
  0.0025927  0.7434719  0.7517759

 Al 
  0.2568388  0.5052968  0.7502042

 Al 
  0.2565145  0.7409547  0.5108683

 Al 
  0.5088647  0.4881652  0.9947416

 Al 
  0.4882432  0.7397975  0.2483231

 Al 
  0.7487525  0.4870996  0.2492055

 Al 
  0.7541297  0.7694743  0.9929818

 Al 
  0.5010804  0.0046508  0.5080479

 Al 
  0.5020940  0.2565826  0.7520172

 Al 
  0.7512735  0.0145834  0.7527672

 Al 
  0.7543141  0.2628038  0.5040567

 Al 
  0.5046371  0.4681513  0.4874326

 Al 
  0.4923123  0.7551062  0.7510470

 Al 
  0.7579006  0.4978108  0.7384412

 Al 
  0.7497946  0.7572521  0.4845268

