32 
charge = 0 
 Al 
  0.0093560  0.0117680  0.9856257

 Al 
  0.0249691  0.2345441  0.2521373

 Al 
  0.2390698  0.9874165  0.2573375

 Al 
  0.2691067  0.2441080  0.9941389

 Al 
  0.4879177  0.9917999  0.9925226

 Al 
  0.4865861  0.2396676  0.2464705

 Al 
  0.7436662  0.0099599  0.2393062

 Al 
  0.7537201  0.2665437  0.9950473

 Al 
  0.0185263  0.4989468  0.0131380

 Al 
  0.9884040  0.7508675  0.2516905

 Al 
  0.2486399  0.5086221  0.2540382

 Al 
  0.2330578  0.7432590  0.0160982

 Al 
  0.9972959  0.9965769  0.5166353

 Al 
  0.0068066  0.2497810  0.7519467

 Al 
  0.2397084  0.0099352  0.7447404

 Al 
  0.2311123  0.2480348  0.5056990

 Al 
  0.9944545  0.5155289  0.5050109

 Al 
  0.0023081  0.7441884  0.7527177

 Al 
  0.2563153  0.5057819  0.7507945

 Al 
  0.2555567  0.7422120  0.5107482

 Al 
  0.5087879  0.4888013  0.9940857

 Al 
  0.4894102  0.7404126  0.2476140

 Al 
  0.7489802  0.4862420  0.2496572

 Al 
  0.7549824  0.7700077  0.9932986

 Al 
  0.5014517  0.0047139  0.5085639

 Al 
  0.5023266  0.2553203  0.7520197

 Al 
  0.7514269  0.0148805  0.7534800

 Al 
  0.7532102  0.2627605  0.5036669

 Al 
  0.5025098  0.4675239  0.4862606

 Al 
  0.4931637  0.7550629  0.7519974

 Al 
  0.7579538  0.4986758  0.7388842

 Al 
  0.7492166  0.7560591  0.4846295

