32 
charge = 0 
 Al 
  0.0085058  0.0113806  0.9896849

 Al 
  0.0201908  0.2295406  0.2480731

 Al 
  0.2381998  0.9890092  0.2568722

 Al 
  0.2647456  0.2483194  0.9979271

 Al 
  0.4886107  0.9962774  0.9911626

 Al 
  0.4888582  0.2443010  0.2490050

 Al 
  0.7452304  0.0060851  0.2365700

 Al 
  0.7532164  0.2671390  0.9974085

 Al 
  0.0158915  0.5009084  0.0107816

 Al 
  0.9898136  0.7547807  0.2544193

 Al 
  0.2477798  0.5051767  0.2575999

 Al 
  0.2360564  0.7409930  0.0149151

 Al 
  0.9935721  0.9955757  0.5142258

 Al 
  0.0078758  0.2515457  0.7522313

 Al 
  0.2379511  0.0042238  0.7434892

 Al 
  0.2358905  0.2462390  0.5131739

 Al 
  0.9924212  0.5216858  0.5030951

 Al 
  0.0036830  0.7411007  0.7483639

 Al 
  0.2586382  0.5027697  0.7479518

 Al 
  0.2600478  0.7364673  0.5107928

 Al 
  0.5088572  0.4870242  0.9976932

 Al 
  0.4844884  0.7378249  0.2511398

 Al 
  0.7481412  0.4910438  0.2471548

 Al 
  0.7504418  0.7662145  0.9916972

 Al 
  0.4994332  0.0044936  0.5054973

 Al 
  0.5014083  0.2610044  0.7514653

 Al 
  0.7503317  0.0130377  0.7496399

 Al 
  0.7595416  0.2613583  0.5050158

 Al 
  0.5124066  0.4723949  0.4929236

 Al 
  0.4895661  0.7548413  0.7472910

 Al 
  0.7571024  0.4952688  0.7376058

 Al 
  0.7511064  0.7619759  0.4851332

