32 
charge = 0 
 Al 
  0.0087360  0.0115452  0.9888124

 Al 
  0.0212700  0.2301495  0.2487946

 Al 
  0.2381850  0.9887518  0.2569390

 Al 
  0.2657393  0.2475137  0.9971821

 Al 
  0.4884201  0.9955114  0.9912975

 Al 
  0.4883793  0.2435535  0.2485632

 Al 
  0.7449569  0.0066965  0.2369747

 Al 
  0.7532251  0.2672430  0.9969655

 Al 
  0.0165747  0.5007302  0.0113064

 Al 
  0.9895055  0.7540629  0.2540060

 Al 
  0.2479828  0.5060381  0.2569204

 Al 
  0.2353522  0.7412046  0.0153309

 Al 
  0.9942280  0.9957341  0.5148309

 Al 
  0.0077979  0.2510321  0.7521633

 Al 
  0.2380427  0.0053982  0.7436525

 Al 
  0.2348819  0.2464482  0.5119945

 Al 
  0.9926056  0.5208764  0.5035419

 Al 
  0.0034627  0.7415227  0.7490248

 Al 
  0.2583040  0.5033946  0.7484073

 Al 
  0.2593498  0.7373335  0.5109005

 Al 
  0.5089129  0.4870464  0.9970175

 Al 
  0.4851443  0.7381652  0.2505482

 Al 
  0.7482216  0.4901230  0.2476214

 Al 
  0.7512660  0.7670784  0.9919794

 Al 
  0.4998094  0.0045097  0.5061111

 Al 
  0.5015160  0.2601752  0.7516596

 Al 
  0.7505792  0.0134201  0.7503403

 Al 
  0.7583078  0.2619078  0.5049144

 Al 
  0.5108646  0.4712267  0.4916440

 Al 
  0.4900401  0.7549614  0.7480706

 Al 
  0.7573524  0.4956661  0.7376368

 Al 
  0.7509863  0.7609834  0.4848485

