32 
charge = 0 
 Al 
  0.0080825  0.0110292  0.9911118

 Al 
  0.0183518  0.2288600  0.2470051

 Al 
  0.2383756  0.9893842  0.2567880

 Al 
  0.2630476  0.2495978  0.9991250

 Al 
  0.4889535  0.9974370  0.9910351

 Al 
  0.4896589  0.2453950  0.2496968

 Al 
  0.7456252  0.0052015  0.2360094

 Al 
  0.7532721  0.2668036  0.9981028

 Al 
  0.0146713  0.5010618  0.0099005

 Al 
  0.9903421  0.7558920  0.2549713

 Al 
  0.2474110  0.5036409  0.2586753

 Al 
  0.2372717  0.7408086  0.0141169

 Al 
  0.9926006  0.9953678  0.5131590

 Al 
  0.0079080  0.2524801  0.7523501

 Al 
  0.2379709  0.0022907  0.7432961

 Al 
  0.2375551  0.2460064  0.5148334

 Al 
  0.9922764  0.5226734  0.5023130

 Al 
  0.0039936  0.7405673  0.7474568

 Al 
  0.2590775  0.5017400  0.7473046

 Al 
  0.2610292  0.7352681  0.5105205

 Al 
  0.5087050  0.4872407  0.9987600

 Al 
  0.4836605  0.7374029  0.2520160

 Al 
  0.7480830  0.4925264  0.2464346

 Al 
  0.7491622  0.7647233  0.9912603

 Al 
  0.4988355  0.0044924  0.5044948

 Al 
  0.5012883  0.2621095  0.7510977

 Al 
  0.7499084  0.0124041  0.7485558

 Al 
  0.7615267  0.2602817  0.5050431

 Al 
  0.5146144  0.4744419  0.4949557

 Al 
  0.4889845  0.7545963  0.7461512

 Al 
  0.7566544  0.4948307  0.7377271

 Al 
  0.7511027  0.7634424  0.4857334

