32 
charge = 0 
 Al 
  0.0079179  0.0108794  0.9916192

 Al 
  0.0176736  0.2286954  0.2466536

 Al 
  0.2384783  0.9895104  0.2567645

 Al 
  0.2624214  0.2500470  0.9995508

 Al 
  0.4890822  0.9978318  0.9910116

 Al 
  0.4899522  0.2457576  0.2499381

 Al 
  0.7457527  0.0049119  0.2358324

 Al 
  0.7533080  0.2666427  0.9983429

 Al 
  0.0142085  0.5010866  0.0095775

 Al 
  0.9905401  0.7562744  0.2551371

 Al 
  0.2472687  0.5030580  0.2590503

 Al 
  0.2377234  0.7407802  0.0138013

 Al 
  0.9922788  0.9953084  0.5127593

 Al 
  0.0078981  0.2528353  0.7523972

 Al 
  0.2380179  0.0015927  0.7432454

 Al 
  0.2381553  0.2459495  0.5153606

 Al 
  0.9922628  0.5229419  0.5020185

 Al 
  0.0040926  0.7404163  0.7471746

 Al 
  0.2592087  0.5013687  0.7470967

 Al 
  0.2613398  0.7348918  0.5103968

 Al 
  0.5086332  0.4873806  0.9991337

 Al 
  0.4834241  0.7372853  0.2523081

 Al 
  0.7480805  0.4930536  0.2461883

 Al 
  0.7487191  0.7641676  0.9911081

 Al 
  0.4986251  0.0044985  0.5041359

 Al 
  0.5012598  0.2624425  0.7509566

 Al 
  0.7497537  0.0121751  0.7481833

 Al 
  0.7622308  0.2598535  0.5050158

 Al 
  0.5153322  0.4752116  0.4956685

 Al 
  0.4888248  0.7544973  0.7457774

 Al 
  0.7564848  0.4947255  0.7378125

 Al 
  0.7510519  0.7639300  0.4859821

