32 
charge = 0 
 Al 
  0.0088362  0.0116096  0.9883979

 Al 
  0.0217712  0.2304997  0.2491572

 Al 
  0.2382073  0.9886206  0.2569761

 Al 
  0.2661985  0.2471214  0.9968232

 Al 
  0.4883360  0.9951252  0.9913816

 Al 
  0.4881541  0.2431699  0.2483429

 Al 
  0.7448183  0.0070120  0.2371888

 Al 
  0.7532424  0.2672603  0.9967477

 Al 
  0.0168804  0.5006151  0.0115502

 Al 
  0.9893632  0.7537077  0.2537869

 Al 
  0.2480731  0.5064242  0.2565888

 Al 
  0.2350304  0.7413395  0.0155042

 Al 
  0.9945572  0.9958183  0.5151045

 Al 
  0.0077410  0.2508069  0.7521336

 Al 
  0.2381219  0.0059564  0.7437441

 Al 
  0.2344030  0.2465695  0.5113806

 Al 
  0.9927244  0.5204247  0.5037461

 Al 
  0.0033488  0.7417541  0.7493738

 Al 
  0.2581246  0.5036904  0.7486424

 Al 
  0.2589847  0.7377902  0.5109339

 Al 
  0.5089290  0.4871058  0.9966858

 Al 
  0.4855069  0.7383545  0.2502475

 Al 
  0.7482736  0.4896775  0.2478504

 Al 
  0.7516732  0.7674781  0.9921180

 Al 
  0.4999926  0.0045221  0.5064056

 Al 
  0.5015791  0.2597310  0.7517425

 Al 
  0.7506955  0.0136008  0.7506868

 Al 
  0.7577113  0.2621331  0.5048401

 Al 
  0.5100639  0.4706958  0.4910202

 Al 
  0.4903049  0.7550084  0.7484704

 Al 
  0.7574625  0.4958975  0.7376850

 Al 
  0.7508910  0.7604797  0.4847384

