32 
charge = 0 
 Al 
  0.0090119  0.0117036  0.9876145

 Al 
  0.0227018  0.2312980  0.2498911

 Al 
  0.2383087  0.9883471  0.2570553

 Al 
  0.2670487  0.2463529  0.9961277

 Al 
  0.4881862  0.9943419  0.9915846

 Al 
  0.4877271  0.2423766  0.2479011

 Al 
  0.7445374  0.0076704  0.2376442

 Al 
  0.7533055  0.2672256  0.9963195

 Al 
  0.0174236  0.5003317  0.0120081

 Al 
  0.9890971  0.7530036  0.2533216

 Al 
  0.2482389  0.5071160  0.2559391

 Al 
  0.2344401  0.7416724  0.0157876

 Al 
  0.9952242  0.9959952  0.5155958

 Al 
  0.0075900  0.2504195  0.7520779

 Al 
  0.2383521  0.0070232  0.7439483

 Al 
  0.2334946  0.2468504  0.5100973

 Al 
  0.9930226  0.5194235  0.5041186

 Al 
  0.0031112  0.7422615  0.7501114

 Al 
  0.2577385  0.5042560  0.7491325

 Al 
  0.2582199  0.7387567  0.5109623

 Al 
  0.5089364  0.4873224  0.9960348

 Al 
  0.4863051  0.7387741  0.2496324

 Al 
  0.7483998  0.4888062  0.2483045

 Al 
  0.7524850  0.7682144  0.9923989

 Al 
  0.5003552  0.0045542  0.5069737

 Al 
  0.5017239  0.2587780  0.7518761

 Al 
  0.7509084  0.0139473  0.7513762

 Al 
  0.7565517  0.2624870  0.5046421

 Al 
  0.5083870  0.4697305  0.4898025

 Al 
  0.4908903  0.7550765  0.7492909

 Al 
  0.7576506  0.4964321  0.7378471

 Al 
  0.7506262  0.7594500  0.4845837

