32 
charge = 0 
 Al 
  0.0071259  0.0100960  0.9937986

 Al 
  0.0146045  0.2283625  0.2452836

 Al 
  0.2391280  0.9900302  0.2567002

 Al 
  0.2595824  0.2519764  0.0013972

 Al 
  0.4896800  0.9994777  0.9910103

 Al 
  0.4912826  0.2472254  0.2509913

 Al 
  0.7462267  0.0037572  0.2351691

 Al 
  0.7535419  0.2657307  0.9993589

 Al 
  0.0120551  0.5010693  0.0081407

 Al 
  0.9914534  0.7578622  0.2556965

 Al 
  0.2465843  0.5003304  0.2606455

 Al 
  0.2397864  0.7408173  0.0122791

 Al 
  0.9910252  0.9951339  0.5109165

 Al 
  0.0077496  0.2544800  0.7526137

 Al 
  0.2383941  0.9985100  0.7431130

 Al 
  0.2407987  0.2458170  0.5173432

 Al 
  0.9923667  0.5236993  0.5006510

 Al 
  0.0044614  0.7399460  0.7461487

 Al 
  0.2596493  0.4997265  0.7463108

 Al 
  0.2625019  0.7334934  0.5097248

 Al 
  0.5082310  0.4882976  0.0007326

 Al 
  0.4826741  0.7369252  0.2534825

 Al 
  0.7481672  0.4953666  0.2451673

 Al 
  0.7468566  0.7616207  0.9904596

 Al 
  0.4977093  0.0045604  0.5025531

 Al 
  0.5012041  0.2635810  0.7502983

 Al 
  0.7490570  0.0111492  0.7466314

 Al 
  0.7652789  0.2577905  0.5047126

 Al 
  0.5181526  0.4787758  0.4987129

 Al 
  0.4883706  0.7540035  0.7443060

 Al 
  0.7557175  0.4945139  0.7384040

 Al 
  0.7505841  0.7658730  0.4872432

