32 
charge = 0 
 Al 
  0.0077397  0.0107136  0.9921427

 Al 
  0.0169608  0.2285617  0.2463046

 Al 
  0.2386045  0.9896367  0.2567447

 Al 
  0.2617618  0.2505099  0.9999901

 Al 
  0.4892196  0.9982328  0.9909967

 Al 
  0.4902604  0.2461215  0.2501881

 Al 
  0.7458764  0.0046235  0.2356604

 Al 
  0.7533538  0.2664546  0.9985892

 Al 
  0.0137159  0.5010990  0.0092409

 Al 
  0.9907492  0.7566618  0.2552931

 Al 
  0.2471152  0.5024355  0.2594352

 Al 
  0.2381998  0.7407678  0.0134597

 Al 
  0.9919596  0.9952539  0.5123348

 Al 
  0.0078758  0.2532139  0.7524454

 Al 
  0.2380835  0.0008663  0.7432008

 Al 
  0.2387790  0.2459024  0.5158755

 Al 
  0.9922652  0.5231795  0.5017054

 Al 
  0.0041879  0.7402789  0.7469024

 Al 
  0.2593312  0.5009814  0.7468937

 Al 
  0.2616430  0.7345255  0.5102569

 Al 
  0.5085516  0.4875563  0.9995174

 Al 
  0.4832075  0.7371789  0.2526001

 Al 
  0.7480880  0.4935993  0.2459371

 Al 
  0.7482687  0.7635810  0.9909522

 Al 
  0.4984073  0.0045084  0.5037634

 Al 
  0.5012376  0.2627556  0.7508057

 Al 
  0.7495904  0.0119351  0.7478046

 Al 
  0.7629573  0.2593906  0.5049701

 Al 
  0.5160425  0.4760284  0.4963999

 Al 
  0.4886837  0.7543884  0.7454049

 Al 
  0.7563066  0.4946414  0.7379239

 Al 
  0.7509740  0.7644164  0.4862569

