32 
charge = 0 
 Al 
  0.0068932  0.0098498  0.9943753

 Al 
  0.0137444  0.2283662  0.2449557

 Al 
  0.2393520  0.9901688  0.2566915

 Al 
  0.2587892  0.2524912  0.0018947

 Al 
  0.4898495  0.9999097  0.9910326

 Al 
  0.4916564  0.2475979  0.2512796

 Al 
  0.7463331  0.0034677  0.2350131

 Al 
  0.7536211  0.2654349  0.9996250

 Al 
  0.0114413  0.5010396  0.0077434

 Al 
  0.9917145  0.7582719  0.2558066

 Al 
  0.2463838  0.4995471  0.2610663

 Al 
  0.2403656  0.7408606  0.0118323

 Al 
  0.9907245  0.9951104  0.5103955

 Al 
  0.0076865  0.2549441  0.7526768

 Al 
  0.2385327  0.9976647  0.7430981

 Al 
  0.2415215  0.2458071  0.5178036

 Al 
  0.9924323  0.5238045  0.5002611

 Al 
  0.0045468  0.7398644  0.7459198

 Al 
  0.2597371  0.4992773  0.7461277

 Al 
  0.2627692  0.7331729  0.5095094

 Al 
  0.5080986  0.4886169  0.0011596

 Al 
  0.4825368  0.7368633  0.2537770

 Al 
  0.7482154  0.4959990  0.2449050

 Al 
  0.7463665  0.7608992  0.9902864

 Al 
  0.4974605  0.0045864  0.5021212

 Al 
  0.5012054  0.2638124  0.7501139

 Al 
  0.7488652  0.0108646  0.7462304

 Al 
  0.7660995  0.2571902  0.5045852

 Al 
  0.5188481  0.4797918  0.4995211

 Al 
  0.4883050  0.7538575  0.7439458

 Al 
  0.7555047  0.4945126  0.7386157

 Al 
  0.7503997  0.7663556  0.4876269

