32 
charge = 0 
 Al 
  0.0073449  0.0103225  0.9932330

 Al 
  0.0154262  0.2283946  0.2456190

 Al 
  0.2389288  0.9898965  0.2567113

 Al 
  0.2603423  0.2514739  0.0009133

 Al 
  0.4895191  0.9990545  0.9909967

 Al 
  0.4909250  0.2468541  0.2507141

 Al 
  0.7461141  0.0040468  0.2353287

 Al 
  0.7534701  0.2659992  0.9990966

 Al 
  0.0126392  0.5010891  0.0085231

 Al 
  0.9912059  0.7574563  0.2555740

 Al 
  0.2467737  0.5010717  0.2602334

 Al 
  0.2392320  0.7407863  0.0126986

 Al 
  0.9913321  0.9951673  0.5114128

 Al 
  0.0078016  0.2540369  0.7525543

 Al 
  0.2382716  0.9993255  0.7431340

 Al 
  0.2401007  0.2458368  0.5168680

 Al 
  0.9923172  0.5235595  0.5010222

 Al 
  0.0043735  0.7400426  0.7463900

 Al 
  0.2595527  0.5001609  0.7465002

 Al 
  0.2622246  0.7338275  0.5099215

 Al 
  0.5083511  0.4880142  0.0003168

 Al 
  0.4828313  0.7369982  0.2531880

 Al 
  0.7481313  0.4947564  0.2454272

 Al 
  0.7473368  0.7623088  0.9906279

 Al 
  0.4979494  0.0045394  0.5029714

 Al 
  0.5012091  0.2633261  0.7504765

 Al 
  0.7492426  0.0114227  0.7470286

 Al 
  0.7644820  0.2583585  0.5048203

 Al 
  0.5174521  0.4778105  0.4979234

 Al 
  0.4884560  0.7541409  0.7446698

 Al 
  0.7559217  0.4945349  0.7382184

 Al 
  0.7507413  0.7653891  0.4868880

