32 
charge = 0 
 Al 
  0.0055220  0.0082954  0.9973392

 Al 
  0.0089760  0.2289416  0.2434793

 Al 
  0.2408470  0.9909225  0.2567014

 Al 
  0.2544181  0.2552027  0.0045493

 Al 
  0.4907962  0.0021694  0.9912727

 Al 
  0.4937553  0.2494926  0.2528612

 Al 
  0.7467601  0.0020172  0.2343102

 Al 
  0.7541137  0.2635649  0.0009900

 Al 
  0.0079724  0.5007970  0.0055876

 Al 
  0.9931934  0.7603275  0.2561334

 Al 
  0.2452143  0.4951104  0.2632320

 Al 
  0.2435870  0.7412492  0.0092533

 Al 
  0.9893916  0.9951290  0.5074910

 Al 
  0.0072348  0.2575033  0.7530432

 Al 
  0.2394671  0.9930932  0.7431489

 Al 
  0.2454235  0.2458764  0.5198270

 Al 
  0.9929484  0.5237723  0.4980595

 Al 
  0.0049007  0.7396874  0.7449668

 Al 
  0.2600156  0.4968578  0.7453294

 Al 
  0.2639139  0.7317781  0.5081555

 Al 
  0.5072298  0.4907208  0.0034033

 Al 
  0.4821779  0.7367296  0.2552176

 Al 
  0.7486251  0.4994530  0.2436092

 Al 
  0.7438320  0.7568487  0.9893768

 Al 
  0.4961153  0.0047671  0.4997760

 Al 
  0.5013155  0.2645970  0.7491226

 Al 
  0.7478182  0.0092867  0.7442045

 Al 
  0.7704309  0.2537944  0.5036248

 Al 
  0.5222303  0.4855341  0.5037288

 Al 
  0.4883038  0.7530036  0.7422430

 Al 
  0.7543834  0.4948196  0.7400450

 Al 
  0.7490854  0.7686550  0.4899176

