32 
charge = 0 
 Al 
  0.0042349  0.0067212  0.9995768

 Al 
  0.0048649  0.2300431  0.2426130

 Al 
  0.2424001  0.9916044  0.2567608

 Al 
  0.2507277  0.2573660  0.0067125

 Al 
  0.4916155  0.0040060  0.9915957

 Al 
  0.4956104  0.2509690  0.2542275

 Al 
  0.7469209  0.0008910  0.2338647

 Al 
  0.7545604  0.2617160  0.0020333

 Al 
  0.0049243  0.5005656  0.0037907

 Al 
  0.9944978  0.7618336  0.2560863

 Al 
  0.2441649  0.4912022  0.2648990

 Al 
  0.2463517  0.7417059  0.0069328

 Al 
  0.9886590  0.9953059  0.5049861

 Al 
  0.0067385  0.2596480  0.7533810

 Al 
  0.2404163  0.9892914  0.7433308

 Al 
  0.2486671  0.2460472  0.5209792

 Al 
  0.9935016  0.5230756  0.4961438

 Al 
  0.0050604  0.7398260  0.7444718

 Al 
  0.2600292  0.4948901  0.7448963

 Al 
  0.2645104  0.7309985  0.5068264

 Al 
  0.5063153  0.4928494  0.0051990

 Al 
  0.4823016  0.7368336  0.2562386

 Al 
  0.7491523  0.5023873  0.2426835

 Al 
  0.7418519  0.7533229  0.9886503

 Al 
  0.4949990  0.0049540  0.4978281

 Al 
  0.5015296  0.2647035  0.7483429

 Al 
  0.7469544  0.0079179  0.7427108

 Al 
  0.7738726  0.2508948  0.5025246

 Al 
  0.5246696  0.4905883  0.5070108

 Al 
  0.4887035  0.7522437  0.7410970

 Al 
  0.7535283  0.4953987  0.7415512

 Al 
  0.7476647  0.7701970  0.4920573

