32 
charge = 0 
 Al 
  0.0025630  0.0045344  0.0018217

 Al 
  0.9999653  0.2320195  0.2420499

 Al 
  0.2445362  0.9925239  0.2568462

 Al 
  0.2464779  0.2597161  0.0091530

 Al 
  0.4925981  0.0061160  0.9921031

 Al 
  0.4979060  0.2526199  0.2558722

 Al 
  0.7468380  0.9996065  0.2334922

 Al 
  0.7550356  0.2592681  0.0031050

 Al 
  0.0012227  0.5003663  0.0017375

 Al 
  0.9960695  0.7632914  0.2556482

 Al 
  0.2429075  0.4864871  0.2666427

 Al 
  0.2496151  0.7423469  0.0040840

 Al 
  0.9883310  0.9956487  0.5020209

 Al 
  0.0060294  0.2620687  0.7538067

 Al 
  0.2416724  0.9849327  0.7436996

 Al 
  0.2523922  0.2463257  0.5216982

 Al 
  0.9941760  0.5215274  0.4938852

 Al 
  0.0050468  0.7402888  0.7441896

 Al 
  0.2597990  0.4927330  0.7446785

 Al 
  0.2647579  0.7305257  0.5050802

 Al 
  0.5050072  0.4956413  0.0071741

 Al 
  0.4829204  0.7371987  0.2571927

 Al 
  0.7499988  0.5058685  0.2418234

 Al 
  0.7397332  0.7491448  0.9878620

 Al 
  0.4937317  0.0051792  0.4956029

 Al 
  0.5019516  0.2641862  0.7475632

 Al 
  0.7459841  0.0062559  0.7412616

 Al 
  0.7775494  0.2476226  0.5009331

 Al 
  0.5271113  0.4967068  0.5104735

 Al 
  0.4896379  0.7513489  0.7400908

 Al 
  0.7527127  0.4963851  0.7436488

 Al 
  0.7457242  0.7715125  0.4947589

