32 
charge = 0 
 Al 
  0.0009628  0.0022883  0.0032919

 Al 
  0.9957217  0.2344080  0.2420301

 Al 
  0.2466586  0.9935003  0.2568784

 Al 
  0.2429731  0.2614747  0.0111220

 Al 
  0.4934558  0.0079043  0.9926724

 Al 
  0.5000433  0.2540097  0.2573363

 Al 
  0.7464395  0.9984605  0.2333288

 Al 
  0.7552992  0.2569118  0.0038216

 Al 
  0.9979357  0.5003874  0.0000693

 Al 
  0.9974519  0.7641491  0.2548599

 Al 
  0.2418556  0.4824006  0.2678989

 Al 
  0.2523947  0.7429744  0.0015729

 Al 
  0.9887048  0.9960163  0.4994938

 Al 
  0.0052931  0.2639486  0.7541830

 Al 
  0.2428679  0.9813809  0.7441550

 Al 
  0.2554651  0.2465843  0.5216697

 Al 
  0.9947020  0.5194817  0.4919942

 Al 
  0.0047795  0.7409534  0.7441909

 Al 
  0.2593523  0.4911155  0.7448072

 Al 
  0.2644510  0.7305542  0.5034070

 Al 
  0.5035988  0.4982241  0.0087137

 Al 
  0.4839340  0.7377642  0.2577273

 Al 
  0.7509678  0.5088956  0.2413643

 Al 
  0.7381565  0.7456227  0.9872667

 Al 
  0.4927268  0.0053463  0.4937899

 Al 
  0.5025382  0.2630798  0.7470843

 Al 
  0.7452230  0.0047733  0.7404015

 Al 
  0.7801742  0.2451054  0.4993008

 Al 
  0.5287808  0.5020742  0.5129486

 Al 
  0.4909299  0.7506299  0.7396070

 Al 
  0.7522697  0.4974816  0.7457935

 Al 
  0.7438889  0.7720979  0.4972180

