32 
charge = 0 
 Al 
  0.0003490  0.0013824  0.0036756

 Al 
  0.9942094  0.2354475  0.2421477

 Al 
  0.2474865  0.9939149  0.2568623

 Al 
  0.2417752  0.2620105  0.0117804

 Al 
  0.4937627  0.0085392  0.9929137

 Al 
  0.5008651  0.2545122  0.2578746

 Al 
  0.7461970  0.9980236  0.2333214

 Al 
  0.7553302  0.2560071  0.0040097

 Al 
  0.9967403  0.5004752  0.9995112

 Al 
  0.9979555  0.7643248  0.2544602

 Al 
  0.2415029  0.4809601  0.2682738

 Al 
  0.2533686  0.7432120  0.0006757

 Al 
  0.9890463  0.9961512  0.4986065

 Al 
  0.0049948  0.2645389  0.7543129

 Al 
  0.2433234  0.9801928  0.7443505

 Al 
  0.2565145  0.2466685  0.5214816

 Al 
  0.9948641  0.5185610  0.4913494

 Al 
  0.0046000  0.7412541  0.7442466

 Al 
  0.2591233  0.4906205  0.7449421

 Al 
  0.2641825  0.7306804  0.5027622

 Al 
  0.5030073  0.4991696  0.0092149

 Al 
  0.4844302  0.7380377  0.2578313

 Al 
  0.7513811  0.5099847  0.2412900

 Al 
  0.7376726  0.7444124  0.9870786

 Al 
  0.4924038  0.0053945  0.4931798

 Al 
  0.5028229  0.2624994  0.7469766

 Al 
  0.7449792  0.0042337  0.7402171

 Al 
  0.7809205  0.2443196  0.4986572

 Al 
  0.5292523  0.5039961  0.5136689

 Al 
  0.4915289  0.7504010  0.7395525

 Al 
  0.7521942  0.4979283  0.7466573

 Al 
  0.7432182  0.7721487  0.4981189

