32 
charge = 0 
 Al 
  0.0015903  0.0031892  0.0027957

 Al 
  0.9973355  0.2334142  0.2419806

 Al 
  0.2458183  0.9931018  0.2568759

 Al 
  0.2442825  0.2608448  0.0103918

 Al 
  0.4931291  0.0072274  0.9924385

 Al 
  0.4992067  0.2534813  0.2567732

 Al 
  0.7466363  0.9989060  0.2333696

 Al 
  0.7552250  0.2578375  0.0035790

 Al 
  0.9991956  0.5003465  0.0006881

 Al 
  0.9969234  0.7638793  0.2552126

 Al 
  0.2422479  0.4839501  0.2674533

 Al 
  0.2513452  0.7427293  0.0025296

 Al 
  0.9884721  0.9958727  0.5004480

 Al 
  0.0055888  0.2632667  0.7540406

 Al 
  0.2424001  0.9826989  0.7439669

 Al 
  0.2543179  0.2464878  0.5217613

 Al 
  0.9945126  0.5203455  0.4927021

 Al 
  0.0049168  0.7406700  0.7441649

 Al 
  0.2595527  0.4916947  0.7447181

 Al 
  0.2646367  0.7304898  0.5040642

 Al 
  0.5041731  0.4972279  0.0081506

 Al 
  0.4834884  0.7375167  0.2575627

 Al 
  0.7505693  0.5077410  0.2414992

 Al 
  0.7387221  0.7469445  0.9874821

 Al 
  0.4930944  0.0052881  0.4944644

 Al 
  0.5022833  0.2635835  0.7472390

 Al 
  0.7455015  0.0053426  0.7406750

 Al 
  0.7792560  0.2460150  0.4999505

 Al 
  0.5282016  0.5000272  0.5120786

 Al 
  0.4903767  0.7508935  0.7397394

 Al 
  0.7524021  0.4970373  0.7449347

 Al 
  0.7445993  0.7719469  0.4962712

