32 
charge = 0 
 Al 
  0.0019108  0.0036384  0.0025024

 Al 
  0.9981833  0.2329365  0.2419831

 Al 
  0.2453938  0.9929063  0.2568685

 Al 
  0.2449829  0.2604933  0.0099995

 Al 
  0.4929570  0.0068709  0.9923246

 Al 
  0.4987798  0.2532040  0.2564811

 Al 
  0.7467155  0.9991349  0.2334018

 Al 
  0.7551718  0.2583090  0.0034355

 Al 
  0.9998527  0.5003428  0.0010210

 Al 
  0.9966462  0.7637085  0.2553710

 Al 
  0.2424583  0.4847668  0.2672034

 Al 
  0.2507896  0.7426031  0.0030320

 Al 
  0.9883966  0.9957985  0.5009529

 Al 
  0.0057361  0.2628917  0.7539652

 Al 
  0.2421613  0.9834080  0.7438753

 Al 
  0.2537028  0.2464358  0.5217675

 Al 
  0.9944075  0.5207564  0.4930796

 Al 
  0.0049713  0.7405364  0.7441637

 Al 
  0.2596431  0.4920190  0.7446921

 Al 
  0.2646985  0.7304836  0.5043995

 Al 
  0.5044540  0.4967106  0.0078437

 Al 
  0.4832855  0.7374041  0.2574551

 Al 
  0.7503750  0.5071370  0.2415908

 Al 
  0.7390364  0.7476486  0.9876009

 Al 
  0.4932961  0.0052547  0.4948258

 Al 
  0.5021657  0.2638062  0.7473343

 Al 
  0.7456537  0.0056396  0.7408470

 Al 
  0.7787313  0.2465187  0.5002772

 Al 
  0.5278687  0.4989543  0.5115848

 Al 
  0.4901181  0.7510371  0.7398359

 Al 
  0.7524900  0.4968182  0.7445052

 Al 
  0.7449668  0.7718306  0.4957787

