32 
charge = 0 
 Al 
  0.9957861  0.9940523  0.0036545

 Al 
  0.9848361  0.2448406  0.2445399

 Al 
  0.2535469  0.9978466  0.2558821

 Al 
  0.2351901  0.2635290  0.0149535

 Al 
  0.4956896  0.0125142  0.9951166

 Al 
  0.5074353  0.2581815  0.2616059

 Al 
  0.7429805  0.9944966  0.2344327

 Al 
  0.7539998  0.2494159  0.0038661

 Al 
  0.9890451  0.5028612  0.9967861

 Al 
  0.0014244  0.7628620  0.2500384

 Al 
  0.2400636  0.4729593  0.2694062

 Al 
  0.2589414  0.7447973  0.9954111

 Al 
  0.9949792  0.9966858  0.4933766

 Al 
  0.0024170  0.2663433  0.7547931

 Al 
  0.2466586  0.9745198  0.7458604

 Al 
  0.2622172  0.2468356  0.5176439

 Al 
  0.9952973  0.5099574  0.4881070

 Al 
  0.0018106  0.7439397  0.7451290

 Al 
  0.2566383  0.4891936  0.7472873

 Al 
  0.2597198  0.7331753  0.4978293

 Al 
  0.4976387  0.5048500  0.0115700

 Al 
  0.4897344  0.7409410  0.2569477

 Al 
  0.7548475  0.5169657  0.2425499

 Al 
  0.7360626  0.7382097  0.9864239

 Al 
  0.4914076  0.0053760  0.4901997

 Al 
  0.5060591  0.2559651  0.7473491

 Al 
  0.7441488  0.0008514  0.7412368

 Al 
  0.7813982  0.2414299  0.4941934

 Al 
  0.5299267  0.5155289  0.5150463

 Al 
  0.4975051  0.7496535  0.7414150

 Al 
  0.7529528  0.5012920  0.7536298

 Al 
  0.7396416  0.7699297  0.5037201

