32 
charge = 0 
 Al 
  0.9978937  0.9975348  0.0042226

 Al 
  0.9887864  0.2402171  0.2431984

 Al 
  0.2508032  0.9958517  0.2565430

 Al 
  0.2377754  0.2633360  0.0138520

 Al 
  0.4948765  0.0108262  0.9940139

 Al 
  0.5042770  0.2564564  0.2599352

 Al 
  0.7447230  0.9962056  0.2336555

 Al 
  0.7549540  0.2524095  0.0042399

 Al 
  0.9923345  0.5013935  0.9977464

 Al 
  0.9998602  0.7641033  0.2523452

 Al 
  0.2404497  0.4760445  0.2692057

 Al 
  0.2567212  0.7441067  0.9975323

 Al 
  0.9915747  0.9965608  0.4955188

 Al 
  0.0036867  0.2660611  0.7546916

 Al 
  0.2451240  0.9764814  0.7451747

 Al 
  0.2599995  0.2468628  0.5198517

 Al 
  0.9952515  0.5142344  0.4892666

 Al 
  0.0033983  0.7426303  0.7446612

 Al 
  0.2579179  0.4893966  0.7459507

 Al 
  0.2622618  0.7317435  0.5001460

 Al 
  0.5003106  0.5025580  0.0107445

 Al 
  0.4869833  0.7394312  0.2576803

 Al 
  0.7532078  0.5139634  0.2416007

 Al 
  0.7364116  0.7404621  0.9865650

 Al 
  0.4915462  0.0054700  0.4912455

 Al 
  0.5043377  0.2593758  0.7469605

 Al 
  0.7443109  0.0022685  0.7403025

 Al 
  0.7822571  0.2421972  0.4961165

 Al 
  0.5301916  0.5108200  0.5152109

 Al 
  0.4944730  0.7497896  0.7400921

 Al 
  0.7523811  0.4997735  0.7503354

 Al 
  0.7409188  0.7714358  0.5013947

