32 
charge = 0 
 Al 
  0.9972328  0.9964556  0.0041285

 Al 
  0.9874882  0.2416291  0.2435931

 Al 
  0.2516769  0.9964494  0.2563747

 Al 
  0.2368967  0.2634783  0.0142592

 Al 
  0.4951438  0.0113806  0.9943443

 Al 
  0.5052423  0.2569836  0.2604673

 Al 
  0.7442119  0.9956883  0.2338523

 Al 
  0.7547114  0.2514591  0.0041706

 Al 
  0.9912566  0.5017945  0.9973962

 Al 
  0.0003527  0.7638038  0.2516596

 Al 
  0.2402777  0.4749691  0.2693184

 Al 
  0.2574761  0.7443295  0.9968145

 Al 
  0.9925424  0.9966227  0.4948047

 Al 
  0.0033031  0.2662405  0.7547461

 Al 
  0.2456042  0.9757599  0.7453950

 Al 
  0.2607594  0.2468714  0.5192193

 Al 
  0.9952898  0.5129350  0.4888458

 Al 
  0.0029479  0.7430313  0.7448035

 Al 
  0.2575330  0.4892604  0.7463319

 Al 
  0.2615378  0.7321531  0.4994282

 Al 
  0.4995025  0.5033389  0.0110415

 Al 
  0.4878026  0.7398780  0.2575009

 Al 
  0.7537238  0.5149399  0.2418395

 Al 
  0.7362420  0.7396490  0.9864920

 Al 
  0.4914447  0.0054577  0.4908631

 Al 
  0.5048426  0.2583585  0.7470521

 Al 
  0.7442206  0.0017994  0.7405252

 Al 
  0.7821680  0.2418742  0.4954779

 Al 
  0.5302027  0.5124053  0.5152851

 Al 
  0.4953876  0.7497104  0.7404324

 Al 
  0.7525358  0.5002636  0.7513650

 Al 
  0.7404435  0.7710311  0.5021719

