32 
charge = 0 
 Al 
  0.9975670  0.9970039  0.0041867

 Al 
  0.9881380  0.2409089  0.2433889

 Al 
  0.2512363  0.9961438  0.2564638

 Al 
  0.2373323  0.2634164  0.0140599

 Al 
  0.4950101  0.0111022  0.9941748

 Al 
  0.5047510  0.2567150  0.2601988

 Al 
  0.7444755  0.9959519  0.2337471

 Al 
  0.7548413  0.2519393  0.0042114

 Al 
  0.9917974  0.5015841  0.9975682

 Al 
  0.0001040  0.7639659  0.2520123

 Al 
  0.2403582  0.4755000  0.2692676

 Al 
  0.2571011  0.7442181  0.9971709

 Al 
  0.9920388  0.9965942  0.4951611

 Al 
  0.0034986  0.2661613  0.7547213

 Al 
  0.2453616  0.9761113  0.7452836

 Al 
  0.2603831  0.2468690  0.5195473

 Al 
  0.9952737  0.5135983  0.4890525

 Al 
  0.0031818  0.7428271  0.7447305

 Al 
  0.2577311  0.4893198  0.7461339

 Al 
  0.2619140  0.7319403  0.4997921

 Al 
  0.4999158  0.5029516  0.0108955

 Al 
  0.4873818  0.7396478  0.2575974

 Al 
  0.7534615  0.5144498  0.2417120

 Al 
  0.7363200  0.7400475  0.9865254

 Al 
  0.4914893  0.0054663  0.4910499

 Al 
  0.5045827  0.2588807  0.7470014

 Al 
  0.7442627  0.0020346  0.7404039

 Al 
  0.7822360  0.2420264  0.4957985

 Al 
  0.5302089  0.5116158  0.5152629

 Al 
  0.4949198  0.7497463  0.7402505

 Al 
  0.7524528  0.5000173  0.7508428

 Al 
  0.7406750  0.7712452  0.5017846

