32 
charge = 0 
 Al 
  0.9965336  0.9952997  0.0039416

 Al 
  0.9861764  0.2431637  0.2440411

 Al 
  0.2525890  0.9971103  0.2561569

 Al 
  0.2360378  0.2635451  0.0146268

 Al 
  0.4954148  0.0119412  0.9947094

 Al 
  0.5062893  0.2575541  0.2610217

 Al 
  0.7436327  0.9951215  0.2341085

 Al 
  0.7543958  0.2504653  0.0040468

 Al 
  0.9901626  0.5022821  0.9970769

 Al 
  0.0008712  0.7633929  0.2508935

 Al 
  0.2401465  0.4739406  0.2693852

 Al 
  0.2582149  0.7445584  0.9961079

 Al 
  0.9936711  0.9966648  0.4940944

 Al 
  0.0028823  0.2663371  0.7547807

 Al 
  0.2461141  0.9751064  0.7456227

 Al 
  0.2614957  0.2468628  0.5184855

 Al 
  0.9953047  0.5115143  0.4884597

 Al 
  0.0024219  0.7434657  0.7449594

 Al 
  0.2571086  0.4891924  0.7467749

 Al 
  0.2606950  0.7326283  0.4986597

 Al 
  0.4986152  0.5041025  0.0113150

 Al 
  0.4887159  0.7403780  0.2572571

 Al 
  0.7542696  0.5159361  0.2421539

 Al 
  0.7361257  0.7388978  0.9864425

 Al 
  0.4913965  0.0054279  0.4905141

 Al 
  0.5054143  0.2572249  0.7471821

 Al 
  0.7441649  0.0013279  0.7408358

 Al 
  0.7818883  0.2416192  0.4948357

 Al 
  0.5301173  0.5139721  0.5152319

 Al 
  0.4963937  0.7496646  0.7408705

 Al 
  0.7527276  0.5007698  0.7524603

 Al 
  0.7400153  0.7705299  0.5029466

