32 
charge = 0 
 Al 
  0.9932070  0.9897084  0.0021608

 Al 
  0.9806074  0.2507933  0.2462947

 Al 
  0.2567187  0.0005532  0.2546161

 Al 
  0.2326716  0.2629214  0.0156490

 Al 
  0.4965299  0.0143025  0.9966450

 Al 
  0.5115675  0.2604933  0.2635414

 Al 
  0.7405958  0.9921848  0.2358992

 Al 
  0.7522685  0.2459210  0.0029528

 Al 
  0.9855812  0.5051928  0.9961178

 Al 
  0.0033686  0.7604673  0.2469086

 Al 
  0.2401700  0.4703752  0.2691587

 Al 
  0.2610254  0.7456153  0.9933865

 Al 
  0.0000668  0.9966091  0.4911452

 Al 
  0.0007165  0.2657344  0.7546532

 Al 
  0.2485508  0.9732055  0.7466338

 Al 
  0.2643099  0.2466536  0.5144646

 Al 
  0.9951351  0.5043933  0.4873137

 Al 
  0.9994258  0.7456413  0.7456995

 Al 
  0.2549515  0.4896453  0.7492525

 Al 
  0.2559353  0.7352804  0.4948852

 Al 
  0.4940993  0.5069167  0.0122246

 Al 
  0.4934818  0.7430907  0.2555740

 Al 
  0.7567299  0.5202836  0.2442998

 Al 
  0.7362037  0.7366331  0.9866207

 Al 
  0.4918828  0.0050307  0.4895055

 Al 
  0.5084637  0.2513997  0.7480558

 Al 
  0.7443926  0.9993738  0.7430251

 Al 
  0.7784763  0.2412282  0.4923581

 Al 
  0.5286149  0.5200832  0.5136305

 Al 
  0.5014888  0.7498602  0.7437614

 Al 
  0.7537671  0.5028909  0.7575541

 Al 
  0.7389956  0.7675140  0.5060121

