32 
charge = 0 
 Al 
  0.9941216  0.9912529  0.0027660

 Al 
  0.9820467  0.2486597  0.2456760

 Al 
  0.2556161  0.9995681  0.2551198

 Al 
  0.2335070  0.2632246  0.0154708

 Al 
  0.4962502  0.0136998  0.9960806

 Al 
  0.5100738  0.2596443  0.2628694

 Al 
  0.7414559  0.9930325  0.2353225

 Al 
  0.7529367  0.2471388  0.0033191

 Al 
  0.9867432  0.5043203  0.9963022

 Al 
  0.0026694  0.7614017  0.2480422

 Al 
  0.2400673  0.4711611  0.2692961

 Al 
  0.2603534  0.7453233  0.9940436

 Al 
  0.9981795  0.9966586  0.4919014

 Al 
  0.0013353  0.2660499  0.7547324

 Al 
  0.2478776  0.9735607  0.7463678

 Al 
  0.2636268  0.2467304  0.5156279

 Al 
  0.9952106  0.5063920  0.4875254

 Al 
  0.0003106  0.7450262  0.7455027

 Al 
  0.2555579  0.4894164  0.7485285

 Al 
  0.2573400  0.7345032  0.4959433

 Al 
  0.4953777  0.5062695  0.0120242

 Al 
  0.4921217  0.7422937  0.2561061

 Al 
  0.7560851  0.5191439  0.2436191

 Al 
  0.7361009  0.7370613  0.9865056

 Al 
  0.4916427  0.0051841  0.4896899

 Al 
  0.5075863  0.2530444  0.7477885

 Al 
  0.7442552  0.9998725  0.7423321

 Al 
  0.7797052  0.2412368  0.4929397

 Al 
  0.5291854  0.5186006  0.5142481

 Al 
  0.5000582  0.7497488  0.7428580

 Al 
  0.7534825  0.5023625  0.7561903

 Al 
  0.7391144  0.7684174  0.5052621

