32 
charge = 0 
 Al 
  0.9936699  0.9904918  0.0024764

 Al 
  0.9813289  0.2497104  0.2459829

 Al 
  0.2561631  0.0000507  0.2548785

 Al 
  0.2330875  0.2630860  0.0155673

 Al 
  0.4963913  0.0140018  0.9963566

 Al 
  0.5108076  0.2600589  0.2632023

 Al 
  0.7410326  0.9926179  0.2355997

 Al 
  0.7526137  0.2465348  0.0031434

 Al 
  0.9861603  0.5047461  0.9962044

 Al 
  0.0030122  0.7609512  0.2474853

 Al 
  0.2401094  0.4707564  0.2692342

 Al 
  0.2606938  0.7454668  0.9937119

 Al 
  0.9991015  0.9966363  0.4915239

 Al 
  0.0010321  0.2659064  0.7546965

 Al 
  0.2482092  0.9733726  0.7465002

 Al 
  0.2639708  0.2466932  0.5150574

 Al 
  0.9951760  0.5054081  0.4874128

 Al 
  0.9998787  0.7453282  0.7456005

 Al 
  0.2552596  0.4895216  0.7488825

 Al 
  0.2566544  0.7348832  0.4954235

 Al 
  0.4947503  0.5065999  0.0121269

 Al 
  0.4927887  0.7426823  0.2558487

 Al 
  0.7564069  0.5197107  0.2439471

 Al 
  0.7361455  0.7368323  0.9865564

 Al 
  0.4917516  0.0051124  0.4895909

 Al 
  0.5080169  0.2522350  0.7479184

 Al 
  0.7443171  0.9996238  0.7426662

 Al 
  0.7791236  0.2412257  0.4926439

 Al 
  0.5289181  0.5193493  0.5139572

 Al 
  0.5007623  0.7497983  0.7432949

 Al 
  0.7536248  0.5026286  0.7568672

 Al 
  0.7390414  0.7679768  0.5056396

