32 
charge = 0 
 Al 
  0.9945584  0.9919917  0.0030283

 Al 
  0.9827583  0.2476462  0.2453765

 Al 
  0.2550802  0.9991052  0.2553401

 Al 
  0.2339265  0.2633372  0.0153606

 Al 
  0.4961091  0.0133991  0.9958195

 Al 
  0.5093696  0.2592495  0.2625415

 Al 
  0.7418630  0.9934273  0.2350676

 Al 
  0.7532375  0.2477303  0.0034800

 Al 
  0.9873249  0.5039181  0.9964086

 Al 
  0.0023402  0.7618175  0.2485768

 Al 
  0.2400426  0.4715856  0.2693431

 Al 
  0.2600069  0.7451846  0.9943802

 Al 
  0.9973058  0.9966747  0.4922751

 Al 
  0.0016262  0.2661638  0.7547584

 Al 
  0.2475558  0.9737723  0.7462378

 Al 
  0.2632790  0.2467625  0.5161725

 Al 
  0.9952416  0.5073400  0.4876541

 Al 
  0.0007203  0.7447366  0.7454062

 Al 
  0.2558450  0.4893322  0.7481907

 Al 
  0.2579897  0.7341419  0.4964432

 Al 
  0.4959816  0.5059267  0.0119165

 Al 
  0.4914806  0.7419261  0.2563450

 Al 
  0.7557670  0.5185845  0.2433159

 Al 
  0.7360712  0.7373150  0.9864673

 Al 
  0.4915549  0.0052448  0.4898000

 Al 
  0.5071741  0.2538228  0.7476660

 Al 
  0.7442094  0.0001200  0.7420214

 Al 
  0.7802225  0.2412628  0.4932454

 Al 
  0.5294193  0.5178419  0.5145030

 Al 
  0.4993787  0.7497092  0.7424521

 Al 
  0.7533439  0.5020940  0.7555245

 Al 
  0.7392146  0.7688332  0.5048797

