32 
charge = 0 
 Al 
  0.9881516  0.9811952  0.9976734

 Al 
  0.9736337  0.2627964  0.2491795

 Al 
  0.2624189  0.0064056  0.2506027

 Al 
  0.2287845  0.2595936  0.0153569

 Al 
  0.4976276  0.0169794  0.0002673

 Al 
  0.5203901  0.2658643  0.2668865

 Al 
  0.7360391  0.9869598  0.2402530

 Al 
  0.7477786  0.2396651  0.0003020

 Al 
  0.9806618  0.5104883  0.9960509

 Al 
  0.0076370  0.7539676  0.2404349

 Al 
  0.2419175  0.4685325  0.2675127

 Al 
  0.2634733  0.7475063  0.9908767

 Al 
  0.0116578  0.9960893  0.4873373

 Al 
  0.9969927  0.2622110  0.7536793

 Al 
  0.2523811  0.9731635  0.7479741

 Al 
  0.2671848  0.2461091  0.5077471

 Al 
  0.9945485  0.4930697  0.4876083

 Al 
  0.9940337  0.7492934  0.7465150

 Al 
  0.2514380  0.4920449  0.7535481

 Al 
  0.2471920  0.7400215  0.4887196

 Al 
  0.4867432  0.5087644  0.0129065

 Al 
  0.5013923  0.7482860  0.2518724

 Al 
  0.7595391  0.5260160  0.2491857

 Al 
  0.7374189  0.7368484  0.9883669

 Al 
  0.4945795  0.0033996  0.4895946

 Al 
  0.5135105  0.2421774  0.7496263

 Al 
  0.7461945  0.9969742  0.7477513

 Al 
  0.7682516  0.2418927  0.4906985

 Al 
  0.5234716  0.5258552  0.5084526

 Al 
  0.5094834  0.7510853  0.7499171

 Al 
  0.7547584  0.5047758  0.7641577

 Al 
  0.7407133  0.7619660  0.5089426

