32 
charge = 0 
 Al 
  0.9898594  0.9840515  0.9994010

 Al 
  0.9758007  0.2587261  0.2483639

 Al 
  0.2605700  0.0043476  0.2522326

 Al 
  0.2299824  0.2610638  0.0157208

 Al 
  0.4973603  0.0162220  0.9989357

 Al 
  0.5172962  0.2638966  0.2658445

 Al 
  0.7374870  0.9888310  0.2385315

 Al 
  0.7494307  0.2416724  0.0013081

 Al 
  0.9819811  0.5086456  0.9958826

 Al 
  0.0060876  0.7564143  0.2426427

 Al 
  0.2410871  0.4686315  0.2682565

 Al 
  0.2629078  0.7467861  0.9914918

 Al 
  0.0075429  0.9962960  0.4885723

 Al 
  0.9983157  0.2637666  0.7541137

 Al 
  0.2510594  0.9727897  0.7475447

 Al 
  0.2663779  0.2463121  0.5100441

 Al 
  0.9947614  0.4969247  0.4871751

 Al 
  0.9959321  0.7480088  0.7463170

 Al 
  0.2526632  0.4910116  0.7520556

 Al 
  0.2503304  0.7383409  0.4908755

 Al 
  0.4892654  0.5085120  0.0127531

 Al 
  0.4986634  0.7463591  0.2532721

 Al 
  0.7587793  0.5241844  0.2472996

 Al 
  0.7369091  0.7362284  0.9875241

 Al 
  0.4933815  0.0041335  0.4893396

 Al 
  0.5117940  0.2452886  0.7490929

 Al 
  0.7453579  0.9977266  0.7459878

 Al 
  0.7723962  0.2415635  0.4909101

 Al 
  0.5256262  0.5243936  0.5105317

 Al 
  0.5067868  0.7505569  0.7476103

 Al 
  0.7545951  0.5043810  0.7621652

 Al 
  0.7396119  0.7639350  0.5082038

