32 
charge = 0 
 Al 
  0.9877729  0.9805678  0.9972551

 Al 
  0.9731857  0.2636961  0.2493218

 Al 
  0.2628174  0.0068784  0.2501869

 Al 
  0.2285320  0.2592000  0.0152245

 Al 
  0.4976647  0.0171167  0.0005841

 Al 
  0.5210980  0.2663321  0.2670994

 Al 
  0.7357470  0.9865279  0.2406849

 Al 
  0.7473925  0.2392406  0.0000619

 Al 
  0.9804403  0.5108992  0.9961227

 Al 
  0.0080070  0.7533823  0.2399448

 Al 
  0.2421464  0.4686117  0.2673098

 Al 
  0.2635501  0.7476858  0.9907839

 Al 
  0.0126021  0.9960435  0.4870675

 Al 
  0.9966870  0.2617964  0.7535642

 Al 
  0.2526830  0.9733194  0.7480669

 Al 
  0.2673383  0.2460621  0.5072360

 Al 
  0.9945040  0.4922133  0.4877766

 Al 
  0.9936030  0.7495867  0.7465385

 Al 
  0.2511571  0.4923160  0.7538835

 Al 
  0.2464630  0.7404064  0.4882271

 Al 
  0.4861789  0.5087496  0.0129263

 Al 
  0.5020036  0.7487463  0.2515333

 Al 
  0.7596641  0.5264071  0.2496485

 Al 
  0.7375439  0.7370910  0.9886082

 Al 
  0.4949000  0.0031979  0.4896936

 Al 
  0.5138879  0.2414918  0.7497426

 Al 
  0.7464259  0.9968145  0.7481696

 Al 
  0.7672034  0.2419769  0.4907220

 Al 
  0.5229098  0.5260940  0.5079353

 Al 
  0.5100775  0.7512215  0.7504703

 Al 
  0.7547535  0.5048129  0.7645488

 Al 
  0.7410611  0.7615143  0.5090614

