32 
charge = 0 
 Al 
  0.9889684  0.9825590  0.9985310

 Al 
  0.9746448  0.2608485  0.2488206

 Al 
  0.2615440  0.0054069  0.2514281

 Al 
  0.2293451  0.2603534  0.0155735

 Al 
  0.4975174  0.0166415  0.9996114

 Al 
  0.5188902  0.2648953  0.2664027

 Al 
  0.7367111  0.9878706  0.2393879

 Al 
  0.7485867  0.2406094  0.0007982

 Al 
  0.9812361  0.5096022  0.9959420

 Al 
  0.0068747  0.7551767  0.2414930

 Al 
  0.2414831  0.4684966  0.2679001

 Al 
  0.2632432  0.7471449  0.9911353

 Al 
  0.0096592  0.9961895  0.4879239

 Al 
  0.9976375  0.2630142  0.7539033

 Al 
  0.2517425  0.9729246  0.7477724

 Al 
  0.2668209  0.2462093  0.5088486

 Al 
  0.9946500  0.4949186  0.4873434

 Al 
  0.9949520  0.7486709  0.7464358

 Al 
  0.2520333  0.4915153  0.7528278

 Al 
  0.2487216  0.7392047  0.4897641

 Al 
  0.4879548  0.5087025  0.0128447

 Al 
  0.5000804  0.7473355  0.2525667

 Al 
  0.7592099  0.5251522  0.2482451

 Al 
  0.7371640  0.7364648  0.9879202

 Al 
  0.4939607  0.0037820  0.4894374

 Al 
  0.5126900  0.2436649  0.7493726

 Al 
  0.7457564  0.9973281  0.7468826

 Al 
  0.7703431  0.2417244  0.4907418

 Al 
  0.5245718  0.5252277  0.5094971

 Al 
  0.5081951  0.7508156  0.7487773

 Al 
  0.7547139  0.5046285  0.7632456

 Al 
  0.7401007  0.7629226  0.5086270

