32 
charge = 0 
 Al 
  0.9885501  0.9818598  0.9980991

 Al 
  0.9741213  0.2618459  0.2490124

 Al 
  0.2619945  0.0059143  0.2510173

 Al 
  0.2290555  0.2599785  0.0154732

 Al 
  0.4975781  0.0168209  0.9999431

 Al 
  0.5196537  0.2653841  0.2666551

 Al 
  0.7363608  0.9874078  0.2398198

 Al 
  0.7481771  0.2401218  0.0005470

 Al 
  0.9809267  0.5100552  0.9959903

 Al 
  0.0072595  0.7545666  0.2409522

 Al 
  0.2416960  0.4684941  0.2677095

 Al 
  0.2633706  0.7473256  0.9909930

 Al 
  0.0106752  0.9961376  0.4876231

 Al 
  0.9973095  0.2626169  0.7537931

 Al 
  0.2520680  0.9730310  0.7478763

 Al 
  0.2670128  0.2461586  0.5082855

 Al 
  0.9945980  0.4939731  0.4874635

 Al 
  0.9944842  0.7489877  0.7464816

 Al 
  0.2517313  0.4917776  0.7531954

 Al 
  0.2479456  0.7396206  0.4892332

 Al 
  0.4873348  0.5087496  0.0128793

 Al 
  0.5007512  0.7478145  0.2522177

 Al 
  0.7593869  0.5255977  0.2487166

 Al 
  0.7372927  0.7366393  0.9881380

 Al 
  0.4942651  0.0035939  0.4895092

 Al 
  0.5131107  0.2429026  0.7495025

 Al 
  0.7459717  0.9971449  0.7473219

 Al 
  0.7692998  0.2418086  0.4907047

 Al 
  0.5240260  0.5255680  0.5089748

 Al 
  0.5088548  0.7509492  0.7493515

 Al 
  0.7547461  0.5047151  0.7637233

 Al 
  0.7403928  0.7624363  0.5087991

