32 
charge = 0 
 Al 
  0.9894065  0.9832904  0.9989654

 Al 
  0.9752054  0.2598064  0.2486028

 Al 
  0.2610688  0.0048834  0.2518341

 Al 
  0.2296545  0.2607161  0.0156552

 Al 
  0.4974444  0.0164423  0.9992760

 Al 
  0.5181031  0.2643990  0.2661316

 Al 
  0.7370873  0.9883459  0.2389572

 Al 
  0.7490062  0.2411279  0.0010519

 Al 
  0.9815875  0.5091320  0.9959061

 Al 
  0.0064836  0.7557930  0.2420586

 Al 
  0.2412801  0.4685424  0.2680820

 Al 
  0.2630885  0.7469655  0.9913012

 Al 
  0.0086134  0.9962415  0.4882407

 Al 
  0.9979729  0.2633979  0.7540109

 Al 
  0.2514059  0.9728429  0.7476610

 Al 
  0.2666093  0.2462601  0.5094364

 Al 
  0.9947045  0.4959037  0.4872469

 Al 
  0.9954359  0.7483441  0.7463814

 Al 
  0.2523452  0.4912591  0.7524479

 Al 
  0.2495186  0.7387778  0.4903124

 Al 
  0.4885996  0.5086233  0.0128026

 Al 
  0.4993825  0.7468492  0.2529194

 Al 
  0.7590057  0.5246807  0.2477711

 Al 
  0.7370365  0.7363274  0.9877147

 Al 
  0.4936649  0.0039627  0.4893805

 Al 
  0.5122494  0.2444607  0.7492352

 Al 
  0.7455522  0.9975224  0.7464371

 Al 
  0.7713777  0.2416427  0.4908111

 Al 
  0.5251064  0.5248366  0.5100168

 Al 
  0.5075046  0.7506844  0.7481956

 Al 
  0.7546631  0.5045171  0.7627246

 Al 
  0.7398396  0.7634226  0.5084290

