32 
charge = 0 
 Al 
  0.9903247  0.9848361  0.9998329

 Al 
  0.9764269  0.2576160  0.2481041

 Al 
  0.2600515  0.0038018  0.2526199

 Al 
  0.2303289  0.2613955  0.0157665

 Al 
  0.4972650  0.0159844  0.9985941

 Al 
  0.5164744  0.2633917  0.2655413

 Al 
  0.7379065  0.9893211  0.2381132

 Al 
  0.7498577  0.2422417  0.0015630

 Al 
  0.9824130  0.5081493  0.9958740

 Al 
  0.0056891  0.7570343  0.2432429

 Al 
  0.2409089  0.4687639  0.2684211

 Al 
  0.2627011  0.7466091  0.9917059

 Al 
  0.0064551  0.9963480  0.4889164

 Al 
  0.9986622  0.2641181  0.7542127

 Al 
  0.2507066  0.9727637  0.7474234

 Al 
  0.2661279  0.2463640  0.5106678

 Al 
  0.9948196  0.4979729  0.4871281

 Al 
  0.9964371  0.7476684  0.7462440

 Al 
  0.2529887  0.4907727  0.7516559

 Al 
  0.2511509  0.7378966  0.4914472

 Al 
  0.4899485  0.5083684  0.0126974

 Al 
  0.4979283  0.7458690  0.2536248

 Al 
  0.7585305  0.5236659  0.2468331

 Al 
  0.7367853  0.7361690  0.9873472

 Al 
  0.4931117  0.0042943  0.4893136

 Al 
  0.5113237  0.2461413  0.7489456

 Al 
  0.7451772  0.9979419  0.7455373

 Al 
  0.7733924  0.2414893  0.4910400

 Al 
  0.5261299  0.5238998  0.5110366

 Al 
  0.5060492  0.7504331  0.7470249

 Al 
  0.7545097  0.5042226  0.7615700

 Al 
  0.7394188  0.7644547  0.5079538

