32 
charge = 0 
 Al 
  0.9864759  0.9784379  0.9956883

 Al 
  0.9717489  0.2667714  0.2496287

 Al 
  0.2641577  0.0085825  0.2485174

 Al 
  0.2277016  0.2575553  0.0145438

 Al 
  0.4976919  0.0174583  0.0017759

 Al 
  0.5236201  0.2680796  0.2677417

 Al 
  0.7348968  0.9849896  0.2423915

 Al 
  0.7459977  0.2378595  0.9991807

 Al 
  0.9799899  0.5123113  0.9965026

 Al 
  0.0094042  0.7511942  0.2382531

 Al 
  0.2431229  0.4693060  0.2664435

 Al 
  0.2636132  0.7484060  0.9906440

 Al 
  0.0159745  0.9959037  0.4861343

 Al 
  0.9955732  0.2600713  0.7530939

 Al 
  0.2537659  0.9741585  0.7483751

 Al 
  0.2677739  0.2458826  0.5054638

 Al 
  0.9943765  0.4892555  0.4886850

 Al 
  0.9920945  0.7506225  0.7465150

 Al 
  0.2501312  0.4934248  0.7550641

 Al 
  0.2438246  0.7417838  0.4864611

 Al 
  0.4842248  0.5084006  0.0129412

 Al 
  0.5041099  0.7504740  0.2502401

 Al 
  0.7599017  0.5277103  0.2514368

 Al 
  0.7380043  0.7383496  0.9896837

 Al 
  0.4962279  0.0023279  0.4902047

 Al 
  0.5151540  0.2391478  0.7501225

 Al 
  0.7474184  0.9962886  0.7497141

 Al 
  0.7630724  0.2422900  0.4911143

 Al 
  0.5206079  0.5265878  0.5059292

 Al 
  0.5121046  0.7517598  0.7525420

 Al 
  0.7545369  0.5047225  0.7656762

 Al 
  0.7427033  0.7598856  0.5092953

