32 
charge = 0 
 Al 
  0.9851393  0.9762883  0.9936785

 Al 
  0.9704940  0.2699359  0.2493664

 Al 
  0.2655227  0.0106505  0.2460051

 Al 
  0.2268662  0.2548785  0.0130748

 Al 
  0.4974048  0.0173952  0.0033785

 Al 
  0.5265618  0.2703641  0.2680969

 Al 
  0.7345985  0.9832558  0.2449297

 Al 
  0.7443518  0.2366343  0.9981102

 Al 
  0.9804960  0.5137666  0.9972774

 Al 
  0.0113212  0.7483664  0.2364524

 Al 
  0.2447428  0.4713739  0.2649584

 Al 
  0.2630588  0.7495174  0.9910400

 Al 
  0.0199149  0.9958814  0.4850700

 Al 
  0.9941995  0.2572781  0.7523662

 Al 
  0.2550950  0.9760136  0.7486907

 Al 
  0.2679855  0.2456512  0.5035196

 Al 
  0.9943617  0.4860650  0.4907703

 Al 
  0.9904460  0.7517685  0.7461153

 Al 
  0.2488218  0.4951735  0.7563858

 Al 
  0.2406279  0.7434001  0.4843597

 Al 
  0.4821147  0.5071135  0.0127778

 Al 
  0.5063029  0.7527474  0.2484605

 Al 
  0.7595119  0.5290097  0.2539367

 Al 
  0.7385600  0.7409584  0.9916403

 Al 
  0.4983380  0.0008069  0.4912851

 Al 
  0.5163408  0.2366999  0.7504517

 Al 
  0.7490953  0.9957824  0.7516249

 Al 
  0.7570888  0.2426489  0.4925400

 Al 
  0.5169422  0.5262079  0.5031385

 Al 
  0.5142023  0.7525197  0.7552460

 Al 
  0.7536372  0.5039416  0.7662145

 Al 
  0.7458529  0.7579043  0.5090404

