32 
charge = 0 
 Al 
  0.9843993  0.9750557  0.9915759

 Al 
  0.9700324  0.2719643  0.2477934

 Al 
  0.2664435  0.0128323  0.2424645

 Al 
  0.2262239  0.2506423  0.0100428

 Al 
  0.4964866  0.0162987  0.0053982

 Al 
  0.5293005  0.2730050  0.2673704

 Al 
  0.7362098  0.9819922  0.2486610

 Al 
  0.7428345  0.2363163  0.9971091

 Al 
  0.9832026  0.5146701  0.9985595

 Al 
  0.0138310  0.7451785  0.2351369

 Al 
  0.2472947  0.4761200  0.2623744

 Al 
  0.2611727  0.7512537  0.9926006

 Al 
  0.0236127  0.9963653  0.4839265

 Al 
  0.9927207  0.2527808  0.7512908

 Al 
  0.2565937  0.9797646  0.7489295

 Al 
  0.2676179  0.2454111  0.5017994

 Al 
  0.9947342  0.4834785  0.4951921

 Al 
  0.9892481  0.7525803  0.7448282

 Al 
  0.2471957  0.4978949  0.7575219

 Al 
  0.2373967  0.7449693  0.4822781

 Al 
  0.4805331  0.5039862  0.0121628

 Al 
  0.5076036  0.7554490  0.2461450

 Al 
  0.7576407  0.5298413  0.2572187

 Al 
  0.7391169  0.7456958  0.9951438

 Al 
  0.5015395  0.9980904  0.4933790

 Al 
  0.5166452  0.2349574  0.7505025

 Al 
  0.7517994  0.9955039  0.7535271

 Al 
  0.7490087  0.2429273  0.4961425

 Al 
  0.5111257  0.5240892  0.4996126

 Al 
  0.5156465  0.7534429  0.7583709

 Al 
  0.7512636  0.5017635  0.7651886

 Al 
  0.7515259  0.7556804  0.5077521

