32 
charge = 0 
 Al 
  0.9844562  0.9750606  0.9909658

 Al 
  0.9701562  0.2721425  0.2468628

 Al 
  0.2665462  0.0135426  0.2410537

 Al 
  0.2260804  0.2487699  0.0084724

 Al 
  0.4960126  0.0155648  0.0061618

 Al 
  0.5300319  0.2738986  0.2666737

 Al 
  0.7375291  0.9818672  0.2502834

 Al 
  0.7424348  0.2365762  0.9968603

 Al 
  0.9848250  0.5147258  0.9990793

 Al 
  0.0148099  0.7441080  0.2349327

 Al 
  0.2484035  0.4785790  0.2611319

 Al 
  0.2600997  0.7520296  0.9935003

 Al 
  0.0246201  0.9967588  0.4835033

 Al 
  0.9922368  0.2507227  0.7508292

 Al 
  0.2571296  0.9816469  0.7489802

 Al 
  0.2672999  0.2453517  0.5013056

 Al 
  0.9950114  0.4828746  0.4974481

 Al 
  0.9890934  0.7526533  0.7440968

 Al 
  0.2465484  0.4991127  0.7577929

 Al 
  0.2364301  0.7454396  0.4816717

 Al 
  0.4802770  0.5023452  0.0117667

 Al 
  0.5076061  0.7564279  0.2452391

 Al 
  0.7565170  0.5299131  0.2585021

 Al 
  0.7393013  0.7478590  0.9968108

 Al 
  0.5029194  0.9967601  0.4944037

 Al 
  0.5163371  0.2346889  0.7504282

 Al 
  0.7529850  0.9954977  0.7540518

 Al 
  0.7458071  0.2429929  0.4980904

 Al 
  0.5085008  0.5228702  0.4983008

 Al 
  0.5158470  0.7537597  0.7594599

 Al 
  0.7499629  0.5006002  0.7643421

 Al 
  0.7541867  0.7548599  0.5069959

