32 
charge = 0 
 Al 
  0.9844240  0.9751126  0.9918036

 Al 
  0.9700262  0.2718343  0.2480645

 Al 
  0.2663791  0.0125835  0.2429261

 Al 
  0.2262834  0.2512289  0.0105069

 Al 
  0.4966314  0.0165017  0.0051445

 Al 
  0.5290208  0.2726932  0.2675474

 Al 
  0.7358646  0.9820801  0.2481523

 Al 
  0.7429880  0.2362767  0.9972081

 Al 
  0.9827360  0.5146156  0.9983887

 Al 
  0.0135105  0.7455510  0.2352396

 Al 
  0.2469432  0.4753874  0.2627506

 Al 
  0.2614846  0.7510123  0.9923395

 Al 
  0.0232315  0.9962626  0.4840651

 Al 
  0.9928902  0.2534157  0.7514368

 Al 
  0.2564130  0.9791990  0.7489085

 Al 
  0.2677021  0.2454359  0.5019776

 Al 
  0.9946599  0.4837199  0.4945164

 Al 
  0.9893372  0.7525259  0.7450411

 Al 
  0.2474036  0.4975162  0.7574130

 Al 
  0.2377481  0.7447998  0.4825021

 Al 
  0.4806606  0.5044738  0.0122717

 Al 
  0.5075417  0.7551198  0.2464408

 Al 
  0.7579625  0.5297869  0.2567992

 Al 
  0.7390538  0.7450213  0.9946339

 Al 
  0.5011039  0.9984914  0.4930684

 Al 
  0.5166922  0.2350936  0.7505173

 Al 
  0.7514257  0.9955175  0.7533278

 Al 
  0.7500520  0.2429026  0.4955708

 Al 
  0.5119412  0.5244456  0.5000507

 Al 
  0.5155388  0.7533328  0.7579984

 Al 
  0.7516435  0.5021088  0.7654163

 Al 
  0.7507079  0.7559527  0.5079711

