32 
charge = 0 
 Al 
  0.9845230  0.9751225  0.9907901

 Al 
  0.9702329  0.2721301  0.2465150

 Al 
  0.2665474  0.0137679  0.2405797

 Al 
  0.2260445  0.2481115  0.0078895

 Al 
  0.4958443  0.0152802  0.0064155

 Al 
  0.5302374  0.2741795  0.2663829

 Al 
  0.7380662  0.9818759  0.2508576

 Al 
  0.7423222  0.2367123  0.9967947

 Al 
  0.9854376  0.5147097  0.9992513

 Al 
  0.0151379  0.7437676  0.2349017

 Al 
  0.2487897  0.4794837  0.2606777

 Al 
  0.2596975  0.7523043  0.9938382

 Al 
  0.0249084  0.9969209  0.4833585

 Al 
  0.9920846  0.2499839  0.7506670

 Al 
  0.2573053  0.9823363  0.7489926

 Al 
  0.2671724  0.2453381  0.5011534

 Al 
  0.9951215  0.4827137  0.4982761

 Al 
  0.9890822  0.7526459  0.7438233

 Al 
  0.2463257  0.4995458  0.7578647

 Al 
  0.2361405  0.7455844  0.4814947

 Al 
  0.4802349  0.5017400  0.0116083

 Al 
  0.5075429  0.7567509  0.2449322

 Al 
  0.7560913  0.5299057  0.2589352

 Al 
  0.7393619  0.7486226  0.9974135

 Al 
  0.5034021  0.9962725  0.4947775

 Al 
  0.5161762  0.2346456  0.7503948

 Al 
  0.7533996  0.9955064  0.7541990

 Al 
  0.7447193  0.2430115  0.4988169

 Al 
  0.5075652  0.5224160  0.4978677

 Al 
  0.5158742  0.7538612  0.7598126

 Al 
  0.7494765  0.5001708  0.7640080

 Al 
  0.7551384  0.7545815  0.5067101

