32 
charge = 0 
 Al 
  0.9845342  0.9753106  0.9922900

 Al 
  0.9700671  0.2714705  0.2485422

 Al 
  0.2662071  0.0120687  0.2438320

 Al 
  0.2264182  0.2523501  0.0113571

 Al 
  0.4968974  0.0168507  0.0046396

 Al 
  0.5284095  0.2720546  0.2678209

 Al 
  0.7353052  0.9823202  0.2471771

 Al 
  0.7433246  0.2362668  0.9974296

 Al 
  0.9819143  0.5144584  0.9980533

 Al 
  0.0128756  0.7463158  0.2354995

 Al 
  0.2462712  0.4740471  0.2634523

 Al 
  0.2620402  0.7505520  0.9918754

 Al 
  0.0224011  0.9960980  0.4843436

 Al 
  0.9932417  0.2546149  0.7517165

 Al 
  0.2560492  0.9781570  0.7488590

 Al 
  0.2678370  0.2454903  0.5023613

 Al 
  0.9945362  0.4842681  0.4932776

 Al 
  0.9895686  0.7523736  0.7454210

 Al 
  0.2478132  0.4967960  0.7571680

 Al 
  0.2384944  0.7444396  0.4829798

 Al 
  0.4809750  0.5053636  0.0124585

 Al 
  0.5073288  0.7544577  0.2470249

 Al 
  0.7585293  0.5296359  0.2559700

 Al 
  0.7389238  0.7437429  0.9936810

 Al 
  0.5002661  0.9992339  0.4924917

 Al 
  0.5167096  0.2354327  0.7505297

 Al 
  0.7507104  0.9955621  0.7528947

 Al 
  0.7521039  0.2428457  0.4945362

 Al 
  0.5134857  0.5250817  0.5009282

 Al 
  0.5152629  0.7531075  0.7572410

 Al 
  0.7523291  0.5027363  0.7657888

 Al 
  0.7491696  0.7564947  0.5083585

