32 
charge = 0 
 Al 
  0.9865650  0.9773736  0.9900290

 Al 
  0.9718776  0.2701611  0.2425709

 Al 
  0.2655438  0.0155277  0.2364079

 Al 
  0.2260074  0.2413061  0.0007772

 Al 
  0.4943357  0.0116294  0.0086060

 Al 
  0.5310579  0.2760111  0.2619945

 Al 
  0.7457564  0.9835144  0.2570343

 Al 
  0.7417900  0.2393025  0.9966957

 Al 
  0.9927850  0.5136082  0.0006534

 Al 
  0.0179892  0.7412145  0.2356406

 Al 
  0.2526830  0.4899584  0.2553599

 Al 
  0.2548871  0.7552324  0.9977959

 Al 
  0.0261893  0.9993676  0.4818722

 Al 
  0.9909745  0.2416910  0.7489493

 Al 
  0.2588288  0.9903099  0.7489815

 Al 
  0.2654485  0.2454532  0.4998465

 Al 
  0.9965819  0.4821197  0.5077731

 Al 
  0.9901478  0.7516633  0.7406861

 Al 
  0.2440894  0.5043104  0.7579885

 Al 
  0.2344748  0.7466932  0.4806643

 Al 
  0.4811235  0.4946995  0.0092755

 Al 
  0.5052114  0.7596381  0.2420437

 Al 
  0.7509752  0.5288822  0.2629437

 Al 
  0.7400327  0.7564861  0.0041273

 Al 
  0.5083944  0.9904708  0.4990582

 Al 
  0.5129028  0.2354846  0.7500681

 Al 
  0.7575368  0.9958282  0.7547089

 Al 
  0.7343436  0.2432219  0.5074588

 Al 
  0.4973182  0.5171737  0.4941896

 Al 
  0.5150797  0.7545703  0.7627506

 Al 
  0.7435907  0.4952812  0.7597310

 Al 
  0.7654770  0.7518180  0.5033179

