32 
charge = 0 
 Al 
  0.9850441  0.9756807  0.9902480

 Al 
  0.9707106  0.2717242  0.2449817

 Al 
  0.2663717  0.0145909  0.2387171

 Al 
  0.2259542  0.2453567  0.0052683

 Al 
  0.4951599  0.0139548  0.0074019

 Al 
  0.5308500  0.2751695  0.2649176

 Al 
  0.7407010  0.9821890  0.2532882

 Al 
  0.7419769  0.2375006  0.9966301

 Al 
  0.9881986  0.5144659  0.9999097

 Al 
  0.0164200  0.7425301  0.2349710

 Al 
  0.2503898  0.4834736  0.2586827

 Al 
  0.2578907  0.7534677  0.9953443

 Al 
  0.0257896  0.9977340  0.4827620

 Al 
  0.9915338  0.2467922  0.7499851

 Al 
  0.2579848  0.9853708  0.7490186

 Al 
  0.2665623  0.2453245  0.5005903

 Al 
  0.9956438  0.4822633  0.5019133

 Al 
  0.9892505  0.7524429  0.7426093

 Al 
  0.2454099  0.5014022  0.7580442

 Al 
  0.2351777  0.7461042  0.4809329

 Al 
  0.4803054  0.4990669  0.0108373

 Al 
  0.5069613  0.7580070  0.2437033

 Al 
  0.7541693  0.5297052  0.2606604

 Al 
  0.7396144  0.7518130  0.0000136

 Al 
  0.5054143  0.9941092  0.4964074

 Al 
  0.5152171  0.2347136  0.7502413

 Al 
  0.7551099  0.9955943  0.7546285

 Al 
  0.7403483  0.2430820  0.5020655

 Al 
  0.5035654  0.5204074  0.4962019

 Al 
  0.5157764  0.7542201  0.7611467

 Al 
  0.7472897  0.4982897  0.7624462

 Al 
  0.7592062  0.7534540  0.5054304

