32 
charge = 0 
 Al 
  0.9862593  0.9770333  0.9900129

 Al 
  0.9716524  0.2704854  0.2429570

 Al 
  0.2657269  0.0154015  0.2367271

 Al 
  0.2259826  0.2419385  0.0015420

 Al 
  0.4944396  0.0120254  0.0084414

 Al 
  0.5310839  0.2759393  0.2625217

 Al 
  0.7448604  0.9832286  0.2564291

 Al 
  0.7417937  0.2389647  0.9966598

 Al 
  0.9920239  0.5137852  0.0005581

 Al 
  0.0177751  0.7413779  0.2354871

 Al 
  0.2523303  0.4888879  0.2559205

 Al 
  0.2553871  0.7549515  0.9973949

 Al 
  0.0262017  0.9990706  0.4820133

 Al 
  0.9910400  0.2425313  0.7491164

 Al 
  0.2587100  0.9894931  0.7489951

 Al 
  0.2656416  0.2454185  0.4999641

 Al 
  0.9964210  0.4821048  0.5068115

 Al 
  0.9899485  0.7518254  0.7409943

 Al 
  0.2442936  0.5038364  0.7580244

 Al 
  0.2345230  0.7466103  0.4806557

 Al 
  0.4809316  0.4954223  0.0095639

 Al 
  0.5055616  0.7593980  0.2422900

 Al 
  0.7515036  0.5290592  0.2626083

 Al 
  0.7399584  0.7557571  0.0034565

 Al 
  0.5079241  0.9910871  0.4986176

 Al 
  0.5133508  0.2353077  0.7500817

 Al 
  0.7571667  0.9957861  0.7547436

 Al 
  0.7352520  0.2431922  0.5065616

 Al 
  0.4983342  0.5177021  0.4944644

 Al 
  0.5152344  0.7545320  0.7625278

 Al 
  0.7442144  0.4957712  0.7601901

 Al 
  0.7644683  0.7520766  0.5036669

