32 
charge = 0 
 Al 
  0.9847322  0.9753391  0.9904844

 Al 
  0.9704371  0.2719977  0.2457725

 Al 
  0.2664967  0.0141961  0.2396354

 Al 
  0.2259876  0.2467514  0.0066333

 Al 
  0.4955002  0.0146527  0.0069180

 Al 
  0.5305876  0.2747055  0.2657084

 Al 
  0.7392901  0.9819749  0.2520494

 Al 
  0.7421279  0.2370588  0.9966920

 Al 
  0.9867630  0.5146230  0.9995904

 Al 
  0.0157888  0.7431216  0.2348968

 Al 
  0.2495829  0.4814118  0.2597149

 Al 
  0.2588300  0.7528761  0.9945634

 Al 
  0.0254059  0.9972959  0.4830627

 Al 
  0.9917962  0.2484308  0.7503317

 Al 
  0.2576518  0.9838040  0.7490112

 Al 
  0.2668853  0.2453220  0.5008638

 Al 
  0.9953666  0.4824501  0.5000371

 Al 
  0.9891218  0.7525791  0.7432367

 Al 
  0.2458715  0.5004529  0.7579749

 Al 
  0.2356170  0.7458566  0.4811816

 Al 
  0.4802225  0.5004492  0.0112519

 Al 
  0.5073177  0.7573882  0.2443146

 Al 
  0.7551693  0.5298413  0.2598040

 Al 
  0.7394869  0.7501980  0.9986795

 Al 
  0.5043958  0.9952304  0.4955671

 Al 
  0.5157591  0.2346319  0.7503205

 Al 
  0.7542486  0.9955411  0.7544478

 Al 
  0.7425288  0.2430461  0.5003787

 Al 
  0.5056099  0.5214457  0.4970175

 Al 
  0.5158656  0.7540505  0.7604970

 Al 
  0.7484283  0.4992587  0.7632679

 Al 
  0.7571284  0.7540208  0.5060962

