32 
charge = 0 
 Al 
  0.9857037  0.9764145  0.9900438

 Al 
  0.9712366  0.2710658  0.2437577

 Al 
  0.2660400  0.0151119  0.2374536

 Al 
  0.2259529  0.2432689  0.0030667

 Al 
  0.4946946  0.0128150  0.0080640

 Al 
  0.5310641  0.2757091  0.2635377

 Al 
  0.7431142  0.9827298  0.2551841

 Al 
  0.7418346  0.2383273  0.9966165

 Al 
  0.9904807  0.5141020  0.0003317

 Al 
  0.0172838  0.7417752  0.2352272

 Al 
  0.2515816  0.4867123  0.2570417

 Al 
  0.2563982  0.7543674  0.9965744

 Al 
  0.0261336  0.9985025  0.4823078

 Al 
  0.9912071  0.2442391  0.7494592

 Al 
  0.2584439  0.9878360  0.7490124

 Al 
  0.2660240  0.2453653  0.5002054

 Al 
  0.9961017  0.4821197  0.5048500

 Al 
  0.9896070  0.7521150  0.7416341

 Al 
  0.2447267  0.5028662  0.7580640

 Al 
  0.2347025  0.7464272  0.4807027

 Al 
  0.4806123  0.4968888  0.0101096

 Al 
  0.5061990  0.7588758  0.2428259

 Al 
  0.7525791  0.5293686  0.2618769

 Al 
  0.7398161  0.7542238  0.0020841

 Al 
  0.5069427  0.9923184  0.4977278

 Al 
  0.5141775  0.2350082  0.7501324

 Al 
  0.7563772  0.9957032  0.7547560

 Al 
  0.7371962  0.2431414  0.5047461

 Al 
  0.5004158  0.5187825  0.4950931

 Al 
  0.5155017  0.7544292  0.7620254

 Al 
  0.7454643  0.4967774  0.7611108

 Al 
  0.7623868  0.7526150  0.5043773

