32 
charge = 0 
 Al 
  0.9848745  0.9754950  0.9903569

 Al 
  0.9705658  0.2718776  0.2453827

 Al 
  0.2664435  0.0143978  0.2391713

 Al 
  0.2259678  0.2460571  0.0059638

 Al 
  0.4953294  0.0143112  0.0071630

 Al 
  0.5307299  0.2749468  0.2653272

 Al 
  0.7399733  0.9820677  0.2526632

 Al 
  0.7420462  0.2372680  0.9966561

 Al 
  0.9874684  0.5145537  0.9997525

 Al 
  0.0161081  0.7428184  0.2349240

 Al 
  0.2499864  0.4824291  0.2592062

 Al 
  0.2583672  0.7531706  0.9949483

 Al 
  0.0256126  0.9975075  0.4829130

 Al 
  0.9916613  0.2476202  0.7501596

 Al 
  0.2578202  0.9845763  0.7490161

 Al 
  0.2667281  0.2453208  0.5007252

 Al 
  0.9955015  0.4823474  0.5009628

 Al 
  0.9891750  0.7525197  0.7429273

 Al 
  0.2456413  0.5009232  0.7580157

 Al 
  0.2353856  0.7459841  0.4810480

 Al 
  0.4802510  0.4997673  0.0110514

 Al 
  0.5071556  0.7577001  0.2440077

 Al 
  0.7546780  0.5297819  0.2602346

 Al 
  0.7395500  0.7510024  0.9993391

 Al 
  0.5049032  0.9946797  0.4959816

 Al 
  0.5155042  0.2346604  0.7502809

 Al 
  0.7546792  0.9955658  0.7545468

 Al 
  0.7414348  0.2430635  0.5012079

 Al 
  0.5045963  0.5209334  0.4966041

 Al 
  0.5158309  0.7541384  0.7608274

 Al 
  0.7478689  0.4987798  0.7628657

 Al 
  0.7581592  0.7537374  0.5057683

