32 
charge = 0 
 Al 
  0.9898780  0.9809935  0.9909992

 Al 
  0.9742228  0.2666564  0.2398829

 Al 
  0.2632729  0.0161353  0.2350515

 Al 
  0.2264999  0.2370242  0.9942750

 Al 
  0.4942540  0.0084686  0.0092656

 Al 
  0.5298871  0.2753020  0.2571655

 Al 
  0.7537139  0.9869227  0.2615848

 Al 
  0.7421056  0.2425350  0.9973021

 Al 
  0.9987067  0.5116727  0.0009245

 Al 
  0.0187899  0.7407542  0.2374932

 Al 
  0.2549899  0.4983404  0.2506646

 Al 
  0.2509665  0.7572360  0.0007562

 Al 
  0.0249134  0.0021571  0.4808908

 Al 
  0.9909311  0.2350997  0.7476684

 Al 
  0.2594104  0.9967031  0.7486869

 Al 
  0.2637382  0.2459346  0.4989097

 Al 
  0.9978751  0.4826494  0.5150859

 Al 
  0.9925672  0.7499554  0.7386355

 Al 
  0.2427367  0.5079340  0.7573177

 Al 
  0.2352198  0.7472712  0.4816754

 Al 
  0.4835181  0.4890451  0.0063462

 Al 
  0.5015742  0.7611108  0.2406069

 Al 
  0.7469160  0.5267425  0.2648569

 Al 
  0.7408086  0.7614883  0.0092285

 Al 
  0.5116987  0.9852656  0.5026051

 Al 
  0.5081964  0.2375625  0.7503997

 Al 
  0.7598201  0.9960967  0.7537226

 Al 
  0.7285196  0.2436847  0.5144139

 Al 
  0.4895711  0.5131949  0.4930387

 Al 
  0.5132803  0.7545530  0.7638607

 Al 
  0.7385142  0.4916044  0.7560232

 Al 
  0.7729060  0.7499097  0.5006621

