32 
charge = 0 
 Al 
  0.9883125  0.9792956  0.9904027

 Al 
  0.9731177  0.2683048  0.2408816

 Al 
  0.2644052  0.0159745  0.2353151

 Al 
  0.2262215  0.2385921  0.9970447

 Al 
  0.4940919  0.0097582  0.0091567

 Al 
  0.5305987  0.2759146  0.2592879

 Al 
  0.7502661  0.9852520  0.2597829

 Al 
  0.7418977  0.2410858  0.9969865

 Al 
  0.9963195  0.5125885  0.0009294

 Al 
  0.0186860  0.7407480  0.2365848

 Al 
  0.2541681  0.4949359  0.2526583

 Al 
  0.2525568  0.7564737  0.9996089

 Al 
  0.0257066  0.0009096  0.4812509

 Al 
  0.9908297  0.2377803  0.7481857

 Al 
  0.2592619  0.9941092  0.7488639

 Al 
  0.2644820  0.2456908  0.4993020

 Al 
  0.9973442  0.4823486  0.5121801

 Al 
  0.9913717  0.7507450  0.7393619

 Al 
  0.2432182  0.5064848  0.7576840

 Al 
  0.2346468  0.7470385  0.4810319

 Al 
  0.4823288  0.4913346  0.0077113

 Al 
  0.5032597  0.7606071  0.2410648

 Al 
  0.7485347  0.5277981  0.2642530

 Al 
  0.7404361  0.7596307  0.0071989

 Al 
  0.5104500  0.9874783  0.5011361

 Al 
  0.5104141  0.2365576  0.7501398

 Al 
  0.7590503  0.9960138  0.7542882

 Al 
  0.7305777  0.2434310  0.5116244

 Al 
  0.4926674  0.5147678  0.4932565

 Al 
  0.5141491  0.7546421  0.7635600

 Al 
  0.7406218  0.4930486  0.7575516

 Al 
  0.7700077  0.7506609  0.5017153

