32 
charge = 0 
 Al 
  0.9872271  0.9781050  0.9901230

 Al 
  0.9723529  0.2694582  0.2418408

 Al 
  0.2651292  0.0157418  0.2358683

 Al 
  0.2260754  0.2401243  0.9992562

 Al 
  0.4941797  0.0108547  0.0088820

 Al 
  0.5309378  0.2760631  0.2609165

 Al 
  0.7475682  0.9841542  0.2581964

 Al 
  0.7418086  0.2400030  0.9967935

 Al 
  0.9942627  0.5132221  0.0008032

 Al 
  0.0183444  0.7409584  0.2359858

 Al 
  0.2533365  0.4920363  0.2542547

 Al 
  0.2539156  0.7557646  0.9985657

 Al 
  0.0260754  0.9999765  0.4816036

 Al 
  0.9908792  0.2400599  0.7486275

 Al 
  0.2590354  0.9918952  0.7489456

 Al 
  0.2650587  0.2455361  0.4996213

 Al 
  0.9968974  0.4821841  0.5096270

 Al 
  0.9905958  0.7513131  0.7401082

 Al 
  0.2437070  0.5052250  0.7578907

 Al 
  0.2344636  0.7468442  0.4807485

 Al 
  0.4815591  0.4932949  0.0086704

 Al 
  0.5044639  0.7600725  0.2415994

 Al 
  0.7499505  0.5284850  0.2635414

 Al 
  0.7401874  0.7578511  0.0054205

 Al 
  0.5092792  0.9892493  0.4999171

 Al 
  0.5119524  0.2358806  0.7500656

 Al 
  0.7582125  0.9959086  0.7545876

 Al 
  0.7326766  0.2432936  0.5092013

 Al 
  0.4953616  0.5161576  0.4937256

 Al 
  0.5147344  0.7546235  0.7631355

 Al 
  0.7423667  0.4943369  0.7588300

 Al 
  0.7674026  0.7513267  0.5026434

