32 
charge = 0 
 Al 
  0.9879412  0.9788884  0.9902913

 Al 
  0.9728565  0.2686996  0.2411811

 Al 
  0.2646589  0.0159089  0.2354648

 Al 
  0.2261670  0.2390686  0.9977699

 Al 
  0.4941005  0.0101121  0.0090837

 Al 
  0.5307312  0.2759938  0.2598300

 Al 
  0.7493738  0.9848696  0.2592768

 Al 
  0.7418606  0.2407232  0.9969172

 Al 
  0.9956586  0.5128063  0.0009009

 Al 
  0.0185981  0.7407962  0.2363757

 Al 
  0.2539107  0.4940015  0.2531805

 Al 
  0.2529949  0.7562497  0.9992773

 Al 
  0.0258539  0.0005977  0.4813611

 Al 
  0.9908334  0.2385154  0.7483281

 Al 
  0.2591976  0.9933964  0.7488949

 Al 
  0.2646725  0.2456364  0.4994060

 Al 
  0.9971994  0.4822868  0.5113633

 Al 
  0.9911007  0.7509381  0.7395933

 Al 
  0.2433691  0.5060814  0.7577608

 Al 
  0.2345602  0.7469766  0.4809180

 Al 
  0.4820591  0.4919657  0.0080367

 Al 
  0.5036694  0.7604450  0.2412244

 Al 
  0.7489889  0.5280382  0.2640414

 Al 
  0.7403507  0.7590750  0.0066296

 Al 
  0.5100824  0.9880588  0.5007401

 Al 
  0.5109401  0.2363225  0.7501040

 Al 
  0.7587954  0.9959816  0.7544020

 Al 
  0.7312225  0.2433803  0.5108460

 Al 
  0.4935300  0.5152109  0.4933828

 Al 
  0.5143520  0.7546433  0.7634387

 Al 
  0.7411886  0.4934595  0.7579662

 Al 
  0.7691797  0.7508725  0.5020123

