32 
charge = 0 
 Al 
  0.9919794  0.9832558  0.9920548

 Al 
  0.9757735  0.2644745  0.2390637

 Al 
  0.2616108  0.0161613  0.2354005

 Al 
  0.2269987  0.2357693  0.9910759

 Al 
  0.4948913  0.0071395  0.0090218

 Al 
  0.5286075  0.2738911  0.2546371

 Al 
  0.7577558  0.9893087  0.2633880

 Al 
  0.7424892  0.2443233  0.9977291

 Al 
  0.0011534  0.5104339  0.0006745

 Al 
  0.0183852  0.7411539  0.2387765

 Al 
  0.2556099  0.5019380  0.2483281

 Al 
  0.2493132  0.7579229  0.0017994

 Al 
  0.0235360  0.0037102  0.4806420

 Al 
  0.9913111  0.2322756  0.7471103

 Al 
  0.2593721  0.9994047  0.7483268

 Al 
  0.2628273  0.2462811  0.4984456

 Al 
  0.9984320  0.4830763  0.5179645

 Al 
  0.9942936  0.7489790  0.7381776

 Al 
  0.2424063  0.5094104  0.7567373

 Al 
  0.2363905  0.7475830  0.4828857

 Al 
  0.4852223  0.4866776  0.0044800

 Al 
  0.4994010  0.7614586  0.2404077

 Al 
  0.7452973  0.5251931  0.2651304

 Al 
  0.7413680  0.7630810  0.0112606

 Al 
  0.5128162  0.9827063  0.5042300

 Al 
  0.5051470  0.2389263  0.7510000

 Al 
  0.7602643  0.9960707  0.7528229

 Al 
  0.7269591  0.2441241  0.5171860

 Al 
  0.4864140  0.5116195  0.4933543

 Al 
  0.5120761  0.7542622  0.7638867

 Al 
  0.7362024  0.4902294  0.7543785

 Al 
  0.7756930  0.7491585  0.4996263

