32 
charge = 0 
 Al 
  0.9933295  0.9847124  0.9928531

 Al 
  0.9768489  0.2630922  0.2387728

 Al 
  0.2604661  0.0161131  0.2359289

 Al 
  0.2274021  0.2353497  0.9892481

 Al 
  0.4954977  0.0064675  0.0086877

 Al 
  0.5276088  0.2726870  0.2531731

 Al 
  0.7600837  0.9909212  0.2642802

 Al 
  0.7427912  0.2454037  0.9979865

 Al 
  0.0023885  0.5096208  0.0004059

 Al 
  0.0178679  0.7415784  0.2396367

 Al 
  0.2557980  0.5038315  0.2469445

 Al 
  0.2484667  0.7582236  0.0022313

 Al 
  0.0225261  0.0046594  0.4806136

 Al 
  0.9916724  0.2308017  0.7468021

 Al 
  0.2592347  0.0007871  0.7480125

 Al 
  0.2622655  0.2465125  0.4981573

 Al 
  0.9987179  0.4833375  0.5193555

 Al 
  0.9954705  0.7484110  0.7381442

 Al 
  0.2423494  0.5101604  0.7563227

 Al 
  0.2373224  0.7478132  0.4838436

 Al 
  0.4863695  0.4854784  0.0032387

 Al 
  0.4980570  0.7615452  0.2404695

 Al 
  0.7444990  0.5241139  0.2650686

 Al 
  0.7417739  0.7637134  0.0122642

 Al 
  0.5132988  0.9812336  0.5051309

 Al 
  0.5031137  0.2398074  0.7515111

 Al 
  0.7602804  0.9959655  0.7521991

 Al 
  0.7264603  0.2444619  0.5185102

 Al 
  0.4848151  0.5108212  0.4938283

 Al 
  0.5112754  0.7539850  0.7637518

 Al 
  0.7349426  0.4896082  0.7534974

 Al 
  0.7770024  0.7487822  0.4991312

