32 
charge = 0 
 Al 
  0.9937986  0.9852198  0.9931489

 Al 
  0.9772425  0.2626145  0.2387060

 Al 
  0.2600564  0.0160896  0.2361554

 Al 
  0.2275580  0.2352631  0.9886466

 Al 
  0.4957366  0.0062608  0.0085466

 Al 
  0.5272313  0.2722192  0.2526892

 Al 
  0.7608509  0.9914942  0.2645513

 Al 
  0.7429063  0.2457700  0.9980719

 Al 
  0.0027684  0.5093349  0.0002970

 Al 
  0.0176489  0.7417504  0.2399411

 Al 
  0.2558326  0.5044305  0.2464779

 Al 
  0.2482055  0.7583078  0.0023427

 Al 
  0.0221573  0.0049824  0.4806272

 Al 
  0.9918160  0.2303401  0.7467007

 Al 
  0.2591703  0.0012140  0.7478887

 Al 
  0.2620724  0.2465955  0.4980570

 Al 
  0.9988082  0.4834241  0.5197713

 Al 
  0.9958913  0.7482253  0.7381739

 Al 
  0.2423556  0.5103918  0.7561730

 Al 
  0.2376714  0.7479011  0.4842062

 Al 
  0.4867766  0.4851096  0.0027981

 Al 
  0.4975979  0.7615576  0.2405190

 Al 
  0.7442565  0.5237228  0.2650141

 Al 
  0.7419249  0.7638768  0.0125687

 Al 
  0.5134325  0.9807460  0.5054242

 Al 
  0.5023922  0.2401131  0.7517066

 Al 
  0.7602458  0.9959136  0.7519789

 Al 
  0.7263564  0.2445881  0.5189013

 Al 
  0.4843213  0.5105700  0.4940312

 Al 
  0.5109920  0.7538736  0.7636837

 Al 
  0.7345379  0.4894337  0.7532164

 Al 
  0.7773873  0.7486671  0.4989840

