32 
charge = 0 
 Al 
  0.9906997  0.9818784  0.9913816

 Al 
  0.9748144  0.2657987  0.2395018

 Al 
  0.2626417  0.0161650  0.2351072

 Al 
  0.2266769  0.2364338  0.9929657

 Al 
  0.4944532  0.0079018  0.0092161

 Al 
  0.5294280  0.2748243  0.2561383

 Al 
  0.7553624  0.9878372  0.2623595

 Al 
  0.7422430  0.2432516  0.9974717

 Al 
  0.9997512  0.5111913  0.0008539

 Al 
  0.0186971  0.7408656  0.2379870

 Al 
  0.2552881  0.4998577  0.2497166

 Al 
  0.2502636  0.7575429  0.0012239

 Al 
  0.0244097  0.0027771  0.4807633

 Al 
  0.9910499  0.2339067  0.7474358

 Al 
  0.2594240  0.9978504  0.7485644

 Al 
  0.2633743  0.2460670  0.4987241

 Al 
  0.9981115  0.4828164  0.5163296

 Al 
  0.9932256  0.7495619  0.7383917

 Al 
  0.2425684  0.5085639  0.7571011

 Al 
  0.2356307  0.7473887  0.4821048

 Al 
  0.4841703  0.4880365  0.0056247

 Al 
  0.5007128  0.7612841  0.2404794

 Al 
  0.7462192  0.5261546  0.2650252

 Al 
  0.7410178  0.7622135  0.0101022

 Al 
  0.5121987  0.9842198  0.5032783

 Al 
  0.5070182  0.2380934  0.7506027

 Al 
  0.7600639  0.9961054  0.7533847

 Al 
  0.7277734  0.2438431  0.5156131

 Al 
  0.4882221  0.5125192  0.4930919

 Al 
  0.5128150  0.7544614  0.7639127

 Al 
  0.7375514  0.4910004  0.7553339

 Al 
  0.7741226  0.7495879  0.5002129

