32 
charge = 0 
 Al 
  0.9924212  0.9837310  0.9923061

 Al 
  0.9761175  0.2640203  0.2389510

 Al 
  0.2612433  0.0161490  0.2355515

 Al 
  0.2271237  0.2356022  0.9904609

 Al 
  0.4950745  0.0069056  0.0089253

 Al 
  0.5282956  0.2735211  0.2541458

 Al 
  0.7585379  0.9898297  0.2636986

 Al 
  0.7425833  0.2446822  0.9978157

 Al 
  0.0015816  0.5101703  0.0005940

 Al 
  0.0182355  0.7412801  0.2390550

 Al 
  0.2556866  0.5025877  0.2478677

 Al 
  0.2490211  0.7580305  0.0019591

 Al 
  0.0232154  0.0040233  0.4806222

 Al 
  0.9914212  0.2317682  0.7470063

 Al 
  0.2593349  0.9998837  0.7482303

 Al 
  0.2626429  0.2463554  0.4983516

 Al 
  0.9985310  0.4831630  0.5184533

 Al 
  0.9946723  0.7487884  0.7381454

 Al 
  0.2423754  0.5096703  0.7566049

 Al 
  0.2366826  0.7476548  0.4831840

 Al 
  0.4855935  0.4862618  0.0040790

 Al 
  0.4989580  0.7614970  0.2404138

 Al 
  0.7450188  0.5248478  0.2651280

 Al 
  0.7414967  0.7633162  0.0116108

 Al 
  0.5129919  0.9822125  0.5045344

 Al 
  0.5044886  0.2392146  0.7511571

 Al 
  0.7602903  0.9960435  0.7526212

 Al 
  0.7267611  0.2442305  0.5176538

 Al 
  0.4858596  0.5113435  0.4934892

 Al 
  0.5118175  0.7541792  0.7638533

 Al 
  0.7357742  0.4900054  0.7540778

 Al 
  0.7761571  0.7490285  0.4994518

