32 
charge = 0 
 Al 
  0.9968591  0.9885773  0.9952911

 Al 
  0.9800889  0.2595342  0.2385971

 Al 
  0.2572459  0.0158891  0.2380167

 Al 
  0.2287894  0.2352866  0.9850787

 Al 
  0.4975731  0.0051656  0.0073684

 Al 
  0.5243750  0.2686278  0.2498057

 Al 
  0.7654336  0.9953975  0.2659373

 Al 
  0.7438023  0.2480682  0.9985570

 Al 
  0.0047696  0.5073870  0.9994245

 Al 
  0.0158148  0.7431154  0.2420078

 Al 
  0.2557720  0.5077669  0.2435201

 Al 
  0.2468059  0.7586976  0.0026830

 Al 
  0.0195857  0.0070442  0.4810121

 Al 
  0.9929385  0.2278254  0.7460806

 Al 
  0.2585714  0.0034379  0.7468950

 Al 
  0.2607928  0.2471598  0.4973615

 Al 
  0.9992995  0.4839265  0.5218195

 Al 
  0.9987723  0.7471524  0.7388223

 Al 
  0.2426625  0.5116356  0.7551223

 Al 
  0.2402195  0.7485929  0.4869190

 Al 
  0.4895166  0.4831927  0.9998107

 Al 
  0.4947032  0.7614648  0.2411279

 Al 
  0.7429867  0.5209519  0.2643136

 Al 
  0.7430412  0.7644114  0.0141441

 Al 
  0.5139993  0.9777969  0.5071556

 Al 
  0.4974729  0.2421303  0.7531644

 Al 
  0.7596258  0.9953765  0.7505235

 Al 
  0.7263118  0.2454990  0.5207440

 Al 
  0.4816841  0.5091518  0.4957354

 Al 
  0.5090416  0.7529677  0.7630699

 Al 
  0.7322199  0.4887159  0.7516224

 Al 
  0.7792263  0.7480521  0.4982724

