32 
charge = 0 
 Al 
  0.9957873  0.9873917  0.9945027

 Al 
  0.9790320  0.2606059  0.2385785

 Al 
  0.2582533  0.0159646  0.2373014

 Al 
  0.2283154  0.2351728  0.9862618

 Al 
  0.4968838  0.0055072  0.0078251

 Al 
  0.5254505  0.2699866  0.2507661

 Al 
  0.7639065  0.9940003  0.2655203

 Al 
  0.7434595  0.2472786  0.9983998

 Al 
  0.0041520  0.5080850  0.9997587

 Al 
  0.0165276  0.7425944  0.2412702

 Al 
  0.2558425  0.5066965  0.2445436

 Al 
  0.2472415  0.7585874  0.0026348

 Al 
  0.0205151  0.0063301  0.4808190

 Al 
  0.9925127  0.2286174  0.7462923

 Al 
  0.2588127  0.0027598  0.7472786

 Al 
  0.2612457  0.2469568  0.4976140

 Al 
  0.9991424  0.4837632  0.5212192

 Al 
  0.9977390  0.7475001  0.7385129

 Al 
  0.2425053  0.5112470  0.7555034

 Al 
  0.2392815  0.7483268  0.4859042

 Al 
  0.4885414  0.4837768  0.0008787

 Al 
  0.4956995  0.7615254  0.2408656

 Al 
  0.7433778  0.5219655  0.2646181

 Al 
  0.7426241  0.7643161  0.0136639

 Al 
  0.5138533  0.9787882  0.5065814

 Al 
  0.4992364  0.2414200  0.7526261

 Al 
  0.7599116  0.9956029  0.7510334

 Al 
  0.7262215  0.2451648  0.5202242

 Al 
  0.4825071  0.5096171  0.4950745

 Al 
  0.5097458  0.7533179  0.7633137

 Al 
  0.7329736  0.4888904  0.7521397

 Al 
  0.7786991  0.7482439  0.4984766

