32 
charge = 0 
 Al 
  0.9979852  0.9898371  0.9961598

 Al 
  0.9812744  0.2584154  0.2386676

 Al 
  0.2561643  0.0158074  0.2388236

 Al 
  0.2293364  0.2355131  0.9839018

 Al 
  0.4983404  0.0048463  0.0068499

 Al 
  0.5231560  0.2670957  0.2488454

 Al 
  0.7669583  0.9968962  0.2663074

 Al 
  0.7442008  0.2488850  0.9987080

 Al 
  0.0053376  0.5066333  0.9990446

 Al 
  0.0149968  0.7437058  0.2427986

 Al 
  0.2556507  0.5087991  0.2424521

 Al 
  0.2463987  0.7587916  0.0026620

 Al 
  0.0185832  0.0077880  0.4812831

 Al 
  0.9934174  0.2270791  0.7458616

 Al 
  0.2582855  0.0040481  0.7464519

 Al 
  0.2603064  0.2473801  0.4970843

 Al 
  0.9994505  0.4840837  0.5223392

 Al 
  0.9998824  0.7468195  0.7392332

 Al 
  0.2428778  0.5119994  0.7547089

 Al 
  0.2412517  0.7488998  0.4880526

 Al 
  0.4905549  0.4826655  0.9986671

 Al 
  0.4936748  0.7613781  0.2414534

 Al 
  0.7426229  0.5198357  0.2639362

 Al 
  0.7435127  0.7644250  0.0145797

 Al 
  0.5141020  0.9767969  0.5077261

 Al 
  0.4955757  0.2428815  0.7537511

 Al 
  0.7592607  0.9950980  0.7499926

 Al 
  0.7265024  0.2458616  0.5211648

 Al 
  0.4809106  0.5086840  0.4964878

 Al 
  0.5082768  0.7525618  0.7627877

 Al 
  0.7314848  0.4886119  0.7511163

 Al 
  0.7796706  0.7478739  0.4981003

