32 
charge = 0 
 Al 
  0.9963158  0.9879758  0.9948864

 Al 
  0.9795456  0.2600762  0.2385810

 Al 
  0.2577595  0.0159287  0.2376479

 Al 
  0.2285431  0.2352161  0.9856690

 Al 
  0.4972192  0.0053339  0.0076048

 Al 
  0.5249295  0.2693283  0.2502859

 Al 
  0.7646701  0.9946859  0.2657344

 Al 
  0.7436241  0.2476697  0.9984790

 Al 
  0.0044676  0.5077422  0.9995966

 Al 
  0.0161848  0.7428469  0.2416328

 Al 
  0.2558141  0.5072360  0.2440374

 Al 
  0.2470199  0.7586444  0.0026669

 Al 
  0.0200597  0.0066841  0.4809056

 Al 
  0.9927194  0.2282164  0.7461871

 Al 
  0.2586976  0.0031075  0.7470930

 Al 
  0.2610230  0.2470558  0.4974902

 Al 
  0.9992216  0.4838449  0.5215299

 Al 
  0.9982464  0.7473244  0.7386553

 Al 
  0.2425759  0.5114450  0.7553166

 Al 
  0.2397381  0.7484543  0.4863967

 Al 
  0.4890216  0.4834773  0.0003539

 Al 
  0.4952057  0.7614982  0.2409893

 Al 
  0.7431786  0.5214717  0.2644745

 Al 
  0.7428259  0.7643743  0.0139090

 Al 
  0.5139312  0.9782932  0.5068685

 Al 
  0.4983714  0.2417702  0.7528885

 Al 
  0.7597792  0.9954953  0.7507809

 Al 
  0.7262537  0.2453282  0.5204953

 Al 
  0.4820888  0.5093844  0.4953926

 Al 
  0.5094005  0.7531496  0.7631961

 Al 
  0.7325949  0.4887951  0.7518799

 Al 
  0.7789738  0.7481461  0.4983701

