32 
charge = 0 
 Al 
  0.9952713  0.9868249  0.9941377

 Al 
  0.9785469  0.2611244  0.2385897

 Al 
  0.2587298  0.0159992  0.2369796

 Al 
  0.2281038  0.2351567  0.9868558

 Al 
  0.4965682  0.0056854  0.0080281

 Al 
  0.5259393  0.2706029  0.2512462

 Al 
  0.7631429  0.9933394  0.2652950

 Al 
  0.7433048  0.2468925  0.9983194

 Al 
  0.0038253  0.5084142  0.9999084

 Al 
  0.0168457  0.7423593  0.2409200

 Al 
  0.2558599  0.5061470  0.2450386

 Al 
  0.2474704  0.7585256  0.0025865

 Al 
  0.0209519  0.0059849  0.4807485

 Al 
  0.9923197  0.2290307  0.7463950

 Al 
  0.2589179  0.0023972  0.7474494

 Al 
  0.2614623  0.2468603  0.4977315

 Al 
  0.9990619  0.4836803  0.5208876

 Al 
  0.9972514  0.7476783  0.7383941

 Al 
  0.2424484  0.5110440  0.7556816

 Al 
  0.2388458  0.7482080  0.4854401

 Al 
  0.4880786  0.4840899  0.0013848

 Al 
  0.4961846  0.7615440  0.2407566

 Al 
  0.7435845  0.5224370  0.2647431

 Al 
  0.7424335  0.7642382  0.0134078

 Al 
  0.5137654  0.9792795  0.5062942

 Al 
  0.5000693  0.2410796  0.7523761

 Al 
  0.7600255  0.9956970  0.7512784

 Al 
  0.7262140  0.2450101  0.5199297

 Al 
  0.4829390  0.5098510  0.4947787

 Al 
  0.5100750  0.7534738  0.7634214

 Al 
  0.7333573  0.4890018  0.7524033

 Al 
  0.7784045  0.7483441  0.4985917

