32 
charge = 0 
 Al 
  0.9974147  0.9891973  0.9957156

 Al 
  0.9806643  0.2589798  0.2386256

 Al 
  0.2567138  0.0158495  0.2384090

 Al 
  0.2290530  0.2353856  0.9844884

 Al 
  0.4979469  0.0050035  0.0071172

 Al 
  0.5237835  0.2678840  0.2493255

 Al 
  0.7661960  0.9961339  0.2661292

 Al 
  0.7439941  0.2484728  0.9986337

 Al 
  0.0050604  0.5070170  0.9992401

 Al 
  0.0154188  0.7434026  0.2423964

 Al 
  0.2557175  0.5082880  0.2429917

 Al 
  0.2465979  0.7587471  0.0026818

 Al 
  0.0190944  0.0074130  0.4811371

 Al 
  0.9931711  0.2274467  0.7459717

 Al 
  0.2584340  0.0037523  0.7466809

 Al 
  0.2605539  0.2472675  0.4972266

 Al 
  0.9993763  0.4840057  0.5220893

 Al 
  0.9993169  0.7469841  0.7390154

 Al 
  0.2427627  0.5118200  0.7549193

 Al 
  0.2407245  0.7487402  0.4874709

 Al 
  0.4900277  0.4829216  0.9992488

 Al 
  0.4941921  0.7614252  0.2412826

 Al 
  0.7428011  0.5204074  0.2641342

 Al 
  0.7432701  0.7644287  0.0143669

 Al 
  0.5140562  0.9772982  0.5074415

 Al 
  0.4965410  0.2425004  0.7534516

 Al 
  0.7594537  0.9952440  0.7502599

 Al 
  0.7263947  0.2456772  0.5209668

 Al 
  0.4812905  0.5089191  0.4961004

 Al 
  0.5086679  0.7527709  0.7629338

 Al 
  0.7318499  0.4886553  0.7513675

 Al 
  0.7794589  0.7479617  0.4981820

