32 
charge = 0 
 Al 
  0.0009987  0.9932899  0.9986709

 Al 
  0.9848522  0.2554676  0.2390711

 Al 
  0.2531818  0.0155772  0.2411886

 Al 
  0.2310529  0.2365885  0.9810801

 Al 
  0.5005544  0.0041310  0.0052943

 Al 
  0.5194384  0.2624944  0.2464866

 Al 
  0.7706722  0.0010606  0.2669954

 Al 
  0.7454705  0.2510210  0.9990446

 Al 
  0.0065269  0.5045072  0.9978912

 Al 
  0.0125179  0.7454730  0.2449941

 Al 
  0.2551384  0.5111851  0.2396008

 Al 
  0.2455188  0.7589785  0.0022932

 Al 
  0.0157888  0.0097656  0.4823771

 Al 
  0.9948319  0.2254554  0.7452787

 Al 
  0.2573697  0.0052151  0.7450696

 Al 
  0.2589352  0.2480088  0.4962675

 Al 
  0.9998082  0.4844414  0.5232476

 Al 
  0.0029578  0.7460930  0.7407232

 Al 
  0.2436946  0.5127803  0.7535469

 Al 
  0.2442107  0.7498626  0.4914088

 Al 
  0.4933902  0.4816432  0.9955114

 Al 
  0.4910017  0.7610626  0.2425313

 Al 
  0.7418259  0.5165710  0.2626776

 Al 
  0.7449458  0.7641070  0.0154695

 Al 
  0.5141738  0.9743144  0.5091171

 Al 
  0.4902789  0.2449334  0.7553599

 Al 
  0.7580268  0.9941538  0.7486139

 Al 
  0.7273835  0.2468702  0.5217650

 Al 
  0.4792139  0.5074786  0.4987402

 Al 
  0.5060801  0.7512883  0.7619462

 Al 
  0.7297708  0.4886961  0.7499084

 Al 
  0.7803945  0.7474840  0.4978330

