32 
charge = 0 
 Al 
  0.0016200  0.9940176  0.9992203

 Al 
  0.9856703  0.2548710  0.2391887

 Al 
  0.2525543  0.0155277  0.2417071

 Al 
  0.2314539  0.2368917  0.9805567

 Al 
  0.5010358  0.0040035  0.0049465

 Al 
  0.5185845  0.2614561  0.2460324

 Al 
  0.7713739  0.0019467  0.2670846

 Al 
  0.7457725  0.2514529  0.9991015

 Al 
  0.0067187  0.5040468  0.9976288

 Al 
  0.0119610  0.7458690  0.2454619

 Al 
  0.2550035  0.5116182  0.2390104

 Al 
  0.2453690  0.7590107  0.0021645

 Al 
  0.0151923  0.0101728  0.4826754

 Al 
  0.9951438  0.2251807  0.7451587

 Al 
  0.2571543  0.0053760  0.7447478

 Al 
  0.2586369  0.2481449  0.4960844

 Al 
  0.9998738  0.4845057  0.5233565

 Al 
  0.0036087  0.7459742  0.7410995

 Al 
  0.2439038  0.5129090  0.7532969

 Al 
  0.2448530  0.7500879  0.4921576

 Al 
  0.4939842  0.4814984  0.9948468

 Al 
  0.4904621  0.7609858  0.2427875

 Al 
  0.7416861  0.5158445  0.2623769

 Al 
  0.7452750  0.7639845  0.0156081

 Al 
  0.5141552  0.9738367  0.5093807

 Al 
  0.4891478  0.2453653  0.7556903

 Al 
  0.7577335  0.9939236  0.7483392

 Al 
  0.7276212  0.2470806  0.5218021

 Al 
  0.4789206  0.5072298  0.4992401

 Al 
  0.5055975  0.7509913  0.7617593

 Al 
  0.7294614  0.4887765  0.7496807

 Al 
  0.7804700  0.7474172  0.4978108

