32 
charge = 0 
 Al 
  0.0022425  0.9947527  0.9997797

 Al 
  0.9865192  0.2542783  0.2393161

 Al 
  0.2519232  0.0154770  0.2422343

 Al 
  0.2318722  0.2372209  0.9800542

 Al 
  0.5015259  0.0038810  0.0045914

 Al 
  0.5176984  0.2603869  0.2455893

 Al 
  0.7720509  0.0028439  0.2671563

 Al 
  0.7460918  0.2518823  0.9991560

 Al 
  0.0068932  0.5035778  0.9973578

 Al 
  0.0113905  0.7462749  0.2459358

 Al 
  0.2548599  0.5120328  0.2384189

 Al 
  0.2452317  0.7590404  0.0020185

 Al 
  0.0145909  0.0105799  0.4830008

 Al 
  0.9954606  0.2249270  0.7450374

 Al 
  0.2569291  0.0055096  0.7444136

 Al 
  0.2583325  0.2482847  0.4958950

 Al 
  0.9999394  0.4845664  0.5234394

 Al 
  0.0042634  0.7458690  0.7414979

 Al 
  0.2441278  0.5130266  0.7530444

 Al 
  0.2455064  0.7503218  0.4929236

 Al 
  0.4945807  0.4813784  0.9941785

 Al 
  0.4899287  0.7609042  0.2430548

 Al 
  0.7415549  0.5150970  0.2620638

 Al 
  0.7456166  0.7638446  0.0157344

 Al 
  0.5141268  0.9733726  0.5096344

 Al 
  0.4880055  0.2457997  0.7560158

 Al 
  0.7574279  0.9936835  0.7480694

 Al 
  0.7278773  0.2472922  0.5218108

 Al 
  0.4786459  0.5069799  0.4997500

 Al 
  0.5051037  0.7506819  0.7615687

 Al 
  0.7291669  0.4888780  0.7494592

 Al 
  0.7805208  0.7473541  0.4977996

