32 
charge = 0 
 Al 
  0.0100020  0.0047139  0.0074885

 Al 
  0.0016113  0.2483466  0.2421551

 Al 
  0.2440114  0.0141218  0.2498701

 Al 
  0.2391491  0.2446055  0.9768180

 Al 
  0.5084414  0.0025816  0.9989431

 Al 
  0.5022573  0.2431402  0.2410301

 Al 
  0.7770667  0.0151688  0.2656143

 Al 
  0.7522264  0.2566965  0.9992513

 Al 
  0.0070603  0.4966598  0.9928048

 Al 
  0.0029813  0.7523811  0.2526855

 Al 
  0.2520370  0.5151663  0.2308673

 Al 
  0.2446463  0.7595614  0.9984246

 Al 
  0.0063326  0.0153792  0.4912071

 Al 
  0.9998564  0.2242042  0.7437218

 Al 
  0.2529602  0.0040345  0.7387963

 Al 
  0.2536223  0.2504653  0.4927343

 Al 
  0.0005680  0.4852309  0.5213529

 Al 
  0.0125167  0.7463517  0.7493280

 Al 
  0.2483664  0.5128360  0.7496461

 Al 
  0.2545035  0.7545072  0.5045221

 Al 
  0.5022251  0.4829699  0.9861269

 Al 
  0.4838139  0.7594711  0.2475286

 Al 
  0.7404052  0.5029974  0.2567571

 Al 
  0.7516014  0.7601344  0.0156762

 Al 
  0.5126665  0.9697082  0.5117358

 Al 
  0.4728565  0.2513131  0.7584922

 Al 
  0.7525556  0.9894015  0.7456562

 Al 
  0.7326333  0.2498354  0.5188840

 Al 
  0.4772845  0.5030840  0.5067187

 Al 
  0.4975905  0.7454099  0.7590590

 Al 
  0.7277338  0.4928308  0.7470583

 Al 
  0.7784120  0.7466945  0.4990421

