32 
charge = 0 
 Al 
  0.0096839  0.0042535  0.0071531

 Al 
  0.0006658  0.2484469  0.2419558

 Al 
  0.2443196  0.0142629  0.2494852

 Al 
  0.2387184  0.2440919  0.9767214

 Al 
  0.5081073  0.0026397  0.9992674

 Al 
  0.5031941  0.2441055  0.2411688

 Al 
  0.7771187  0.0145884  0.2658495

 Al 
  0.7518254  0.2565467  0.9992896

 Al 
  0.0071841  0.4970150  0.9930758

 Al 
  0.0033897  0.7520729  0.2523439

 Al 
  0.2522214  0.5151676  0.2311829

 Al 
  0.2445956  0.7595144  0.9986709

 Al 
  0.0067274  0.0152233  0.4905673

 Al 
  0.9996609  0.2240619  0.7437466

 Al 
  0.2532003  0.0042869  0.7391082

 Al 
  0.2538810  0.2503379  0.4929162

 Al 
  0.0005495  0.4851901  0.5216462

 Al 
  0.0122011  0.7461970  0.7488206

 Al 
  0.2481201  0.5129746  0.7497995

 Al 
  0.2541062  0.7542535  0.5039305

 Al 
  0.5019009  0.4826865  0.9863967

 Al 
  0.4840218  0.7595602  0.2472798

 Al 
  0.7404349  0.5036954  0.2570578

 Al 
  0.7512338  0.7604104  0.0157851

 Al 
  0.5127902  0.9696822  0.5117234

 Al 
  0.4734976  0.2510990  0.7585540

 Al 
  0.7528130  0.9896515  0.7456760

 Al 
  0.7323573  0.2497376  0.5191909

 Al 
  0.4771979  0.5033204  0.5064279

 Al 
  0.4979828  0.7457057  0.7591592

 Al 
  0.7276187  0.4924942  0.7471536

 Al 
  0.7786805  0.7467266  0.4988986

