32 
charge = 0 
 Al 
  0.0089822  0.0032684  0.0064143

 Al 
  0.9987699  0.2487637  0.2415648

 Al 
  0.2450151  0.0145117  0.2486770

 Al 
  0.2378397  0.2430758  0.9766472

 Al 
  0.5073994  0.0027598  0.9999245

 Al 
  0.5050876  0.2460905  0.2414955

 Al 
  0.7770803  0.0133533  0.2662690

 Al 
  0.7510247  0.2561866  0.9993503

 Al 
  0.0073845  0.4977588  0.9936241

 Al 
  0.0042609  0.7514220  0.2516299

 Al 
  0.2525890  0.5150970  0.2318784

 Al 
  0.2445275  0.7594290  0.9991634

 Al 
  0.0075615  0.0148470  0.4893334

 Al 
  0.9992339  0.2238515  0.7438221

 Al 
  0.2536867  0.0047423  0.7397555

 Al 
  0.2544131  0.2500817  0.4932912

 Al 
  0.0005049  0.4851158  0.5221734

 Al 
  0.0114833  0.7459358  0.7478033

 Al 
  0.2476078  0.5131986  0.7501287

 Al 
  0.2532362  0.7537374  0.5026855

 Al 
  0.5011918  0.4821865  0.9870390

 Al 
  0.4845070  0.7597384  0.2467650

 Al 
  0.7405054  0.5051148  0.2576754

 Al 
  0.7504938  0.7609500  0.0159646

 Al 
  0.5130291  0.9697354  0.5116541

 Al 
  0.4749134  0.2506151  0.7585813

 Al 
  0.7533501  0.9901651  0.7457675

 Al 
  0.7317868  0.2495211  0.5197651

 Al 
  0.4770902  0.5037907  0.5057794

 Al 
  0.4988020  0.7463195  0.7593832

 Al 
  0.7274726  0.4918482  0.7473590

 Al 
  0.7791681  0.7467885  0.4986337

