32 
charge = 0 
 Al 
  0.0081902  0.0021892  0.0055851

 Al 
  0.9968628  0.2492352  0.2411811

 Al 
  0.2458158  0.0147220  0.2478169

 Al 
  0.2369400  0.2420734  0.9767338

 Al 
  0.5066321  0.0028872  0.0005990

 Al 
  0.5070108  0.2481536  0.2418964

 Al 
  0.7768477  0.0120068  0.2666180

 Al 
  0.7502265  0.2557423  0.9993862

 Al 
  0.0075170  0.4985508  0.9941835

 Al 
  0.0052052  0.7507240  0.2508700

 Al 
  0.2529541  0.5149262  0.2326630

 Al 
  0.2445027  0.7593560  0.9996560

 Al 
  0.0084637  0.0143867  0.4881578

 Al 
  0.9987587  0.2237377  0.7439347

 Al 
  0.2541817  0.0051272  0.7404349

 Al 
  0.2549688  0.2498206  0.4936773

 Al 
  0.0004517  0.4850465  0.5226226

 Al 
  0.0106480  0.7457391  0.7467848

 Al 
  0.2470744  0.5133545  0.7504925

 Al 
  0.2522660  0.7532115  0.5013539

 Al 
  0.5003960  0.4817806  0.9878187

 Al 
  0.4850898  0.7599178  0.2462279

 Al 
  0.7405945  0.5065739  0.2583177

 Al 
  0.7497451  0.7614734  0.0160920

 Al 
  0.5132568  0.9699297  0.5115217

 Al 
  0.4765135  0.2500520  0.7584810

 Al 
  0.7539206  0.9906960  0.7459321

 Al 
  0.7311965  0.2492711  0.5202874

 Al 
  0.4770729  0.5042622  0.5050394

 Al 
  0.4996720  0.7469605  0.7596418

 Al 
  0.7274368  0.4912405  0.7475892

 Al 
  0.7795901  0.7468541  0.4984011

