32 
charge = 0 
 Al 
  0.0123632  0.0086543  0.0098312

 Al 
  0.0123793  0.2497339  0.2446822

 Al 
  0.2420734  0.0113942  0.2536768

 Al 
  0.2438134  0.2506485  0.9805146

 Al 
  0.5113930  0.0018700  0.9952997

 Al 
  0.4918766  0.2331642  0.2404138

 Al 
  0.7735347  0.0203208  0.2617878

 Al 
  0.7568264  0.2570937  0.9983590

 Al 
  0.0046050  0.4933246  0.9897827

 Al 
  0.9994233  0.7552238  0.2560678

 Al 
  0.2498379  0.5136850  0.2286223

 Al 
  0.2459618  0.7603213  0.9958232

 Al 
  0.0024962  0.0156923  0.4994419

 Al 
  0.0013984  0.2275259  0.7441971

 Al 
  0.2503898  0.0004010  0.7359722

 Al 
  0.2509418  0.2519875  0.4909373

 Al 
  0.0007091  0.4860205  0.5167145

 Al 
  0.0141948  0.7491263  0.7550765

 Al 
  0.2505680  0.5100874  0.7483318

 Al 
  0.2573647  0.7570826  0.5099129

 Al 
  0.5047758  0.4876343  0.9853534

 Al 
  0.4829328  0.7583758  0.2499938

 Al 
  0.7403247  0.4953307  0.2536805

 Al 
  0.7558178  0.7566420  0.0136466

 Al 
  0.5111170  0.9724667  0.5109821

 Al 
  0.4685721  0.2524528  0.7554737

 Al 
  0.7501101  0.9868979  0.7465918

 Al 
  0.7354797  0.2505247  0.5146230

 Al 
  0.4797164  0.5002562  0.5084835

 Al 
  0.4939149  0.7426105  0.7584117

 Al 
  0.7309366  0.4971833  0.7461301

 Al 
  0.7741498  0.7462663  0.5011831

