32 
charge = 0 
 Al 
  0.0113088  0.0067274  0.0088510

 Al 
  0.0063809  0.2484085  0.2432095

 Al 
  0.2428209  0.0131937  0.2516658

 Al 
  0.2412554  0.2472427  0.9778885

 Al 
  0.5099290  0.0022845  0.9973355

 Al 
  0.4976053  0.2385092  0.2405636

 Al 
  0.7761274  0.0177442  0.2641701

 Al 
  0.7542622  0.2571543  0.9989592

 Al 
  0.0061977  0.4950262  0.9914559

 Al 
  0.0011732  0.7537820  0.2542820

 Al 
  0.2510891  0.5148223  0.2295815

 Al 
  0.2450634  0.7598473  0.9972167

 Al 
  0.0045208  0.0158482  0.4946550

 Al 
  0.0006856  0.2252896  0.7437590

 Al 
  0.2517846  0.0025605  0.7373719

 Al 
  0.2523835  0.2511150  0.4918680

 Al 
  0.0006435  0.4854896  0.5195894

 Al 
  0.0136825  0.7473640  0.7518848

 Al 
  0.2494926  0.5118818  0.7489802

 Al 
  0.2561371  0.7557299  0.5072014

 Al 
  0.5035889  0.4847285  0.9852792

 Al 
  0.4830986  0.7590132  0.2486981

 Al 
  0.7403173  0.4995619  0.2553252

 Al 
  0.7534553  0.7586728  0.0149485

 Al 
  0.5120130  0.9703802  0.5115898

 Al 
  0.4702948  0.2521039  0.7576704

 Al 
  0.7513712  0.9882097  0.7458195

 Al 
  0.7339550  0.2502215  0.5171600

 Al 
  0.4780419  0.5018700  0.5078449

 Al 
  0.4957923  0.7440374  0.7586741

 Al 
  0.7287288  0.4946500  0.7466252

 Al 
  0.7767994  0.7465274  0.4998812

