32 
charge = 0 
 Al 
  0.0105774  0.0055727  0.0080961

 Al 
  0.0035073  0.2482587  0.2425635

 Al 
  0.2434669  0.0137988  0.2506114

 Al 
  0.2399980  0.2456450  0.9771286

 Al 
  0.5090701  0.0024652  0.9983008

 Al 
  0.5003948  0.2412529  0.2408012

 Al 
  0.7768254  0.0162591  0.2650908

 Al 
  0.7530333  0.2569365  0.9991535

 Al 
  0.0067633  0.4959792  0.9922652

 Al 
  0.0022140  0.7529689  0.2533439

 Al 
  0.2516645  0.5150958  0.2302968

 Al 
  0.2447800  0.7596641  0.9979370

 Al 
  0.0055802  0.0156292  0.4925350

 Al 
  0.0002178  0.2245619  0.7437045

 Al 
  0.2524863  0.0034850  0.7382011

 Al 
  0.2531174  0.2507215  0.4923779

 Al 
  0.0006015  0.4853213  0.5207094

 Al 
  0.0130649  0.7467093  0.7503453

 Al 
  0.2488392  0.5125093  0.7493614

 Al 
  0.2552262  0.7550047  0.5056458

 Al 
  0.5028192  0.4836035  0.9856888

 Al 
  0.4834637  0.7592916  0.2480088

 Al 
  0.7403594  0.5016175  0.2561730

 Al 
  0.7523378  0.7595676  0.0154225

 Al 
  0.5124128  0.9698678  0.5117185

 Al 
  0.4717056  0.2516843  0.7582669

 Al 
  0.7520630  0.9889127  0.7456698

 Al 
  0.7331729  0.2500074  0.5182330

 Al 
  0.4775209  0.5026075  0.5072336

 Al 
  0.4968417  0.7448406  0.7588832

 Al 
  0.7280456  0.4935300  0.7468776

 Al 
  0.7778229  0.7466314  0.4993528

