32 
charge = 0 
 Al 
  0.0115192  0.0070813  0.0090627

 Al 
  0.0073524  0.2485335  0.2434360

 Al 
  0.2426476  0.0129548  0.2520061

 Al 
  0.2416737  0.2477897  0.9782214

 Al 
  0.5101950  0.0022227  0.9970088

 Al 
  0.4966697  0.2376108  0.2405104

 Al 
  0.7758069  0.0182070  0.2638248

 Al 
  0.7546780  0.2571902  0.9988800

 Al 
  0.0059762  0.4947243  0.9911836

 Al 
  0.0008539  0.7540382  0.2545852

 Al 
  0.2508923  0.5146874  0.2293785

 Al 
  0.2451809  0.7599154  0.9969791

 Al 
  0.0041805  0.0158779  0.4953987

 Al 
  0.0008230  0.2255866  0.7437998

 Al 
  0.2515519  0.0022276  0.7371133

 Al 
  0.2521422  0.2512512  0.4917034

 Al 
  0.0006559  0.4855576  0.5191723

 Al 
  0.0138347  0.7476152  0.7524046

 Al 
  0.2496943  0.5116343  0.7488627

 Al 
  0.2563970  0.7559651  0.5076877

 Al 
  0.5038166  0.4851505  0.9852087

 Al 
  0.4830182  0.7589154  0.2489196

 Al 
  0.7403099  0.4988738  0.2550480

 Al 
  0.7538340  0.7583597  0.0147654

 Al 
  0.5118732  0.9706252  0.5115205

 Al 
  0.4699062  0.2522078  0.7573994

 Al 
  0.7511509  0.9879820  0.7459037

 Al 
  0.7342099  0.2502822  0.5167739

 Al 
  0.4782597  0.5016163  0.5080058

 Al 
  0.4954606  0.7437837  0.7586171

 Al 
  0.7290159  0.4950436  0.7465435

 Al 
  0.7764182  0.7464903  0.5000743

