32 
charge = 0 
 Al 
  0.0108386  0.0059737  0.0083684

 Al 
  0.0044589  0.2482711  0.2427739

 Al 
  0.2432293  0.0136144  0.2509690

 Al 
  0.2404188  0.2461722  0.9773415

 Al 
  0.5093671  0.0024058  0.9979803

 Al 
  0.4994666  0.2403297  0.2407084

 Al 
  0.7766373  0.0167727  0.2648025

 Al 
  0.7534404  0.2570281  0.9990953

 Al 
  0.0065913  0.4956537  0.9919954

 Al 
  0.0018526  0.7532486  0.2536632

 Al 
  0.2514752  0.5150265  0.2300394

 Al 
  0.2448629  0.7597211  0.9976957

 Al 
  0.0052200  0.0157232  0.4932231

 Al 
  0.0003824  0.2247772  0.7437119

 Al 
  0.2522511  0.0031892  0.7379152

 Al 
  0.2528711  0.2508502  0.4922046

 Al 
  0.0006163  0.4853720  0.5203567

 Al 
  0.0132976  0.7469110  0.7508564

 Al 
  0.2490644  0.5123187  0.7492290

 Al 
  0.2555529  0.7552497  0.5061804

 Al 
  0.5030914  0.4839550  0.9855193

 Al 
  0.4833214  0.7592000  0.2482427

 Al 
  0.7403421  0.5009319  0.2558871

 Al 
  0.7527078  0.7592768  0.0152765

 Al 
  0.5122828  0.9700015  0.5116888

 Al 
  0.4711945  0.2518427  0.7581023

 Al 
  0.7518266  0.9886751  0.7457032

 Al 
  0.7334365  0.2500842  0.5178890

 Al 
  0.4776731  0.5023650  0.5074588

 Al 
  0.4964828  0.7445659  0.7588065

 Al 
  0.7282449  0.4938939  0.7467922

 Al 
  0.7775011  0.7465979  0.4995211

