32 
charge = 0 
 Al 
  0.0130489  0.0105737  0.0100478

 Al 
  0.0208641  0.2535778  0.2471276

 Al 
  0.2420227  0.0072967  0.2563524

 Al 
  0.2475707  0.2556136  0.9863447

 Al 
  0.5128001  0.0011336  0.9922083

 Al 
  0.4838288  0.2262487  0.2407950

 Al 
  0.7677244  0.0231437  0.2574068

 Al 
  0.7603893  0.2559539  0.9970026

 Al 
  0.0015123  0.4915314  0.9873756

 Al 
  0.9976721  0.7568400  0.2584204

 Al 
  0.2479234  0.5109982  0.2283476

 Al 
  0.2479395  0.7611839  0.9941958

 Al 
  0.9996114  0.0140971  0.5068858

 Al 
  0.0019702  0.2324093  0.7455980

 Al 
  0.2485954  0.9971784  0.7349017

 Al 
  0.2490322  0.2534033  0.4900302

 Al 
  0.0007920  0.4873769  0.5114215

 Al 
  0.0132964  0.7523922  0.7595664

 Al 
  0.2513180  0.5065096  0.7476090

 Al 
  0.2577014  0.7584798  0.5127147

 Al 
  0.5058116  0.4928419  0.9873298

 Al 
  0.4839451  0.7572199  0.2515742

 Al 
  0.7405487  0.4891577  0.2515185

 Al 
  0.7593436  0.7532870  0.0111356

 Al 
  0.5096641  0.9777152  0.5095230

 Al 
  0.4686822  0.2518316  0.7503960

 Al 
  0.7486449  0.9854351  0.7486164

 Al 
  0.7375749  0.2507487  0.5104265

 Al 
  0.4833894  0.4977452  0.5080244

 Al 
  0.4918717  0.7411688  0.7582310

 Al 
  0.7357990  0.5011670  0.7454049

 Al 
  0.7691129  0.7457391  0.5034689

