32 
charge = 0 
 Al 
  0.0130068  0.0103757  0.0100898

 Al 
  0.0198109  0.2529862  0.2467972

 Al 
  0.2419818  0.0079254  0.2560195

 Al 
  0.2470781  0.2549861  0.9854921

 Al 
  0.5126665  0.0012363  0.9926130

 Al 
  0.4848324  0.2270742  0.2407146

 Al 
  0.7685709  0.0228330  0.2580206

 Al 
  0.7599537  0.2561606  0.9972081

 Al 
  0.0019479  0.4917145  0.9876813

 Al 
  0.9978528  0.7566593  0.2581295

 Al 
  0.2481709  0.5113942  0.2283142

 Al 
  0.2476462  0.7610638  0.9943728

 Al 
  0.9999913  0.0143879  0.5059217

 Al 
  0.0019207  0.2316804  0.7453715

 Al 
  0.2488045  0.9975769  0.7349661

 Al 
  0.2492637  0.2532127  0.4901106

 Al 
  0.0007821  0.4871591  0.5121628

 Al 
  0.0135080  0.7519393  0.7590070

 Al 
  0.2512809  0.5070195  0.7476919

 Al 
  0.2577459  0.7583486  0.5124264

 Al 
  0.5057114  0.4921291  0.9869722

 Al 
  0.4837397  0.7573870  0.2513910

 Al 
  0.7405067  0.4899535  0.2517821

 Al 
  0.7588882  0.7537424  0.0114920

 Al 
  0.5098621  0.9769096  0.5097359

 Al 
  0.4685090  0.2519789  0.7511472

 Al 
  0.7488095  0.9855898  0.7483070

 Al 
  0.7373076  0.2507289  0.5109883

 Al 
  0.4828461  0.4980744  0.5081692

 Al 
  0.4920895  0.7413098  0.7582521

 Al 
  0.7350799  0.5006460  0.7454990

 Al 
  0.7698319  0.7458170  0.5031545

