32 
charge = 0 
 Al 
  0.0130786  0.0107569  0.0099871

 Al 
  0.0219011  0.2541916  0.2474605

 Al 
  0.2420746  0.0066395  0.2566816

 Al 
  0.2480669  0.2562336  0.9872209

 Al 
  0.5129177  0.0010284  0.9918011

 Al 
  0.4828362  0.2254455  0.2408829

 Al 
  0.7668556  0.0234394  0.2567818

 Al 
  0.7608138  0.2557299  0.9967861

 Al 
  0.0010693  0.4913643  0.9870724

 Al 
  0.9975038  0.7570133  0.2587087

 Al 
  0.2476783  0.5105911  0.2284021

 Al 
  0.2482427  0.7613039  0.9940275

 Al 
  0.9992265  0.0137827  0.5078461

 Al 
  0.0020135  0.2331654  0.7458356

 Al 
  0.2483924  0.9967898  0.7348621

 Al 
  0.2488045  0.2535964  0.4899634

 Al 
  0.0008019  0.4876083  0.5106653

 Al 
  0.0130563  0.7528513  0.7601171

 Al 
  0.2513378  0.5059861  0.7475261

 Al 
  0.2576308  0.7585961  0.5129820

 Al 
  0.5059044  0.4935647  0.9877147

 Al 
  0.4841703  0.7570454  0.2517512

 Al 
  0.7405958  0.4883632  0.2512586

 Al 
  0.7597978  0.7528278  0.0107717

 Al 
  0.5094624  0.9785568  0.5093040

 Al 
  0.4688988  0.2516670  0.7496225

 Al 
  0.7484889  0.9852916  0.7489369

 Al 
  0.7378422  0.2507661  0.5098634

 Al 
  0.4839513  0.4974147  0.5078560

 Al 
  0.4916663  0.7410400  0.7582088

 Al 
  0.7365440  0.5016893  0.7453109

 Al 
  0.7683741  0.7456599  0.5037869

