32 
charge = 0 
 Al 
  0.0128855  0.0099426  0.0101146

 Al 
  0.0176749  0.2518848  0.2461524

 Al 
  0.2419336  0.0090849  0.2553487

 Al 
  0.2461091  0.2537238  0.9838770

 Al 
  0.5123595  0.0014343  0.9934137

 Al 
  0.4868608  0.2287746  0.2405809

 Al 
  0.7701772  0.0221697  0.2591988

 Al 
  0.7590639  0.2565220  0.9975905

 Al 
  0.0027858  0.4921204  0.9882927

 Al 
  0.9982476  0.7562782  0.2575417

 Al 
  0.2486647  0.5121430  0.2283068

 Al 
  0.2470942  0.7608336  0.9947564

 Al 
  0.0007363  0.0148916  0.5040023

 Al 
  0.0018031  0.2303190  0.7449606

 Al 
  0.2492426  0.9983887  0.7351616

 Al 
  0.2497376  0.2528402  0.4903037

 Al 
  0.0007611  0.4867655  0.5135872

 Al 
  0.0138496  0.7510643  0.7578771

 Al 
  0.2511534  0.5079959  0.7478652

 Al 
  0.2577608  0.7580404  0.5117915

 Al 
  0.5054861  0.4907418  0.9863447

 Al 
  0.4833956  0.7577026  0.2510099

 Al 
  0.7404336  0.4915338  0.2523192

 Al 
  0.7579835  0.7546272  0.0121727

 Al 
  0.5102445  0.9754171  0.5101418

 Al 
  0.4683011  0.2522140  0.7525630

 Al 
  0.7491572  0.9859277  0.7477315

 Al 
  0.7367766  0.2506844  0.5120885

 Al 
  0.4818252  0.4987241  0.5083832

 Al 
  0.4925635  0.7416304  0.7582917

 Al 
  0.7337273  0.4996139  0.7456859

 Al 
  0.7712019  0.7459618  0.5025457

