32 
charge = 0 
 Al 
  0.0130971  0.0109277  0.0099092

 Al 
  0.0229135  0.2548228  0.2477947

 Al 
  0.2421353  0.0059539  0.2570071

 Al 
  0.2485657  0.2568450  0.9881157

 Al 
  0.5130204  0.0009207  0.9913965

 Al 
  0.4818635  0.2246696  0.2409794

 Al 
  0.7659695  0.0237191  0.2561457

 Al 
  0.7612272  0.2554911  0.9965608

 Al 
  0.0006200  0.4912133  0.9867729

 Al 
  0.9973479  0.7571791  0.2589921

 Al 
  0.2474345  0.5101765  0.2284763

 Al 
  0.2485545  0.7614252  0.9938728

 Al 
  0.9988392  0.0134461  0.5087978

 Al 
  0.0020506  0.2339451  0.7460844

 Al 
  0.2481981  0.9964135  0.7348473

 Al 
  0.2485842  0.2537907  0.4899089

 Al 
  0.0008106  0.4878533  0.5098993

 Al 
  0.0127927  0.7533130  0.7606579

 Al 
  0.2513378  0.5054552  0.7474469

 Al 
  0.2575368  0.7586926  0.5132258

 Al 
  0.5059898  0.4942911  0.9881244

 Al 
  0.4844166  0.7568660  0.2519219

 Al 
  0.7406453  0.4875724  0.2510049

 Al 
  0.7602495  0.7523650  0.0104017

 Al 
  0.5092582  0.9794280  0.5090812

 Al 
  0.4691587  0.2514851  0.7488305

 Al 
  0.7483404  0.9851604  0.7492686

 Al 
  0.7381083  0.2507809  0.5092990

 Al 
  0.4845292  0.4970868  0.5076655

 Al 
  0.4914757  0.7409250  0.7581852

 Al 
  0.7373088  0.5022078  0.7452181

 Al 
  0.7676192  0.7455782  0.5041087

