32 
charge = 0 
 Al 
  0.0127147  0.0094612  0.0100614

 Al 
  0.0155351  0.2509146  0.2455373

 Al 
  0.2419422  0.0101084  0.2546780

 Al 
  0.2451686  0.2524726  0.9824080

 Al 
  0.5120044  0.0016200  0.9941909

 Al 
  0.4888879  0.2305171  0.2404844

 Al 
  0.7716437  0.0214618  0.2603002

 Al 
  0.7581642  0.2568091  0.9979308

 Al 
  0.0035642  0.4925746  0.9888991

 Al 
  0.9986869  0.7558722  0.2569514

 Al 
  0.2491473  0.5128211  0.2283773

 Al 
  0.2465979  0.7606170  0.9951673

 Al 
  0.0014566  0.0152901  0.5021249

 Al 
  0.0016596  0.2290939  0.7446092

 Al 
  0.2496968  0.9992055  0.7354364

 Al 
  0.2502190  0.2524838  0.4905351

 Al 
  0.0007401  0.4864277  0.5149176

 Al 
  0.0140748  0.7502413  0.7567460

 Al 
  0.2509603  0.5088968  0.7480459

 Al 
  0.2576741  0.7576840  0.5110848

 Al 
  0.5052287  0.4894287  0.9858460

 Al 
  0.4831419  0.7579909  0.2506114

 Al 
  0.7403780  0.4930845  0.2528625

 Al 
  0.7570962  0.7554700  0.0128051

 Al 
  0.5106084  0.9741003  0.5105106

 Al 
  0.4682763  0.2523699  0.7538439

 Al 
  0.7495273  0.9862989  0.7472217

 Al 
  0.7362519  0.2506287  0.5131454

 Al 
  0.4809019  0.4993565  0.5084959

 Al 
  0.4930783  0.7419954  0.7583337

 Al 
  0.7325058  0.4986102  0.7458690

 Al 
  0.7724655  0.7460943  0.5019702

