32 
charge = 0 
 Al 
  0.0128063  0.0097074  0.0100973

 Al 
  0.0166031  0.2513824  0.2458406

 Al 
  0.2419311  0.0096134  0.2550134

 Al 
  0.2456351  0.2530964  0.9831221

 Al 
  0.5121875  0.0015284  0.9938048

 Al 
  0.4878768  0.2296421  0.2405277

 Al 
  0.7709297  0.0218207  0.2597594

 Al 
  0.7586147  0.2566754  0.9977662

 Al 
  0.0031830  0.4923420  0.9885971

 Al 
  0.9984629  0.7560777  0.2572459

 Al 
  0.2489072  0.5124920  0.2283328

 Al 
  0.2468393  0.7607235  0.9949582

 Al 
  0.0010990  0.0151045  0.5030568

 Al 
  0.0017338  0.2296891  0.7447775

 Al 
  0.2494678  0.9987983  0.7352891

 Al 
  0.2499777  0.2526595  0.4904151

 Al 
  0.0007512  0.4865898  0.5142654

 Al 
  0.0139770  0.7506460  0.7573115

 Al 
  0.2510643  0.5084563  0.7479555

 Al 
  0.2577298  0.7578684  0.5114462

 Al 
  0.5053624  0.4900747  0.9860787

 Al 
  0.4832583  0.7578499  0.2508118

 Al 
  0.7404039  0.4923135  0.2525902

 Al 
  0.7575368  0.7550542  0.0124957

 Al 
  0.5104289  0.9747364  0.5103312

 Al 
  0.4682664  0.2523019  0.7532214

 Al 
  0.7493404  0.9861096  0.7474679

 Al 
  0.7365130  0.2506584  0.5126231

 Al 
  0.4813512  0.4990434  0.5084526

 Al 
  0.4928159  0.7418073  0.7583115

 Al 
  0.7330986  0.4991077  0.7457787

 Al 
  0.7718479  0.7460299  0.5022536

