32 
charge = 0 
 Al 
  0.0130810  0.0113509  0.0095775

 Al 
  0.0257475  0.2567707  0.2487810

 Al 
  0.2423482  0.0037659  0.2579452

 Al 
  0.2500532  0.2585825  0.9908445

 Al 
  0.5132246  0.0005940  0.9902084

 Al 
  0.4791062  0.2225459  0.2413098

 Al 
  0.7632679  0.0244480  0.2542164

 Al 
  0.7623670  0.2546990  0.9958393

 Al 
  0.9992698  0.4908705  0.9859190

 Al 
  0.9969581  0.7576197  0.2598064

 Al 
  0.2467440  0.5089228  0.2288166

 Al 
  0.2495248  0.7617828  0.9934842

 Al 
  0.9976734  0.0123199  0.5115403

 Al 
  0.0021286  0.2363893  0.7468776

 Al 
  0.2476833  0.9953876  0.7349574

 Al 
  0.2479716  0.2543649  0.4898396

 Al 
  0.0008366  0.4886590  0.5075825

 Al 
  0.0118695  0.7546928  0.7621850

 Al 
  0.2512301  0.5038402  0.7472217

 Al 
  0.2571160  0.7588659  0.5138100

 Al 
  0.5062014  0.4964519  0.9894646

 Al 
  0.4852606  0.7563004  0.2523835

 Al 
  0.7408185  0.4852606  0.2502834

 Al 
  0.7615601  0.7509826  0.0092755

 Al 
  0.5086345  0.9821729  0.5084068

 Al 
  0.4701785  0.2508490  0.7464074

 Al 
  0.7479518  0.9848498  0.7503057

 Al 
  0.7388991  0.2508168  0.5076419

 Al 
  0.4863212  0.4961301  0.5069613

 Al 
  0.4909967  0.7406688  0.7580937

 Al 
  0.7396837  0.5037139  0.7449483

 Al 
  0.7652963  0.7453282  0.5050653

