32 
charge = 0 
 Al 
  0.0129164  0.0117247  0.0089674

 Al 
  0.0288649  0.2593077  0.2499777

 Al 
  0.2426501  0.0006695  0.2590701

 Al 
  0.2519566  0.2605713  0.9943629

 Al 
  0.5132493  0.0001658  0.9887605

 Al 
  0.4759628  0.2203121  0.2418247

 Al 
  0.7597532  0.0251275  0.2516992

 Al 
  0.7635810  0.2535295  0.9948022

 Al 
  0.9975632  0.4906861  0.9849314

 Al 
  0.9966091  0.7580652  0.2607705

 Al 
  0.2459742  0.5073573  0.2295122

 Al 
  0.2508316  0.7622110  0.9931786

 Al 
  0.9961611  0.0106368  0.5147728

 Al 
  0.0021571  0.2397381  0.7479753

 Al 
  0.2471833  0.9943505  0.7354574

 Al 
  0.2473058  0.2550691  0.4899844

 Al 
  0.0008601  0.4898693  0.5045988

 Al 
  0.0104215  0.7564081  0.7639176

 Al 
  0.2508552  0.5017450  0.7469630

 Al 
  0.2562843  0.7587978  0.5142320

 Al 
  0.5063871  0.4991461  0.9913952

 Al 
  0.4865737  0.7555084  0.2528749

 Al 
  0.7410896  0.4824390  0.2494468

 Al 
  0.7631318  0.7492377  0.0078226

 Al 
  0.5077991  0.9859512  0.5075355

 Al 
  0.4720001  0.2498614  0.7432516

 Al 
  0.7475793  0.9846493  0.7517066

 Al 
  0.7399102  0.2508440  0.5056210

 Al 
  0.4887295  0.4949767  0.5057831

 Al 
  0.4905933  0.7405265  0.7579093

 Al 
  0.7428791  0.5055072  0.7446339

 Al 
  0.7621888  0.7450089  0.5062596

