32 
charge = 0 
 Al 
  0.0130971  0.0112235  0.0097025

 Al 
  0.0248416  0.2561173  0.2484568

 Al 
  0.2422739  0.0045146  0.2576395

 Al 
  0.2495607  0.2580231  0.9899337

 Al 
  0.5131739  0.0007029  0.9905970

 Al 
  0.4799936  0.2232154  0.2411935

 Al 
  0.7641713  0.0242253  0.2548599

 Al 
  0.7620056  0.2549738  0.9960868

 Al 
  0.9997166  0.4909658  0.9861950

 Al 
  0.9970744  0.7574823  0.2595428

 Al 
  0.2469655  0.5093386  0.2286842

 Al 
  0.2491981  0.7616665  0.9935993

 Al 
  0.9980620  0.0127122  0.5106492

 Al 
  0.0021076  0.2355614  0.7466078

 Al 
  0.2478429  0.9957094  0.7348943

 Al 
  0.2481659  0.2541755  0.4898470

 Al 
  0.0008292  0.4883793  0.5083535

 Al 
  0.0121962  0.7542374  0.7616937

 Al 
  0.2512846  0.5043785  0.7472947

 Al 
  0.2572781  0.7588288  0.5136404

 Al 
  0.5061383  0.4957391  0.9890030

 Al 
  0.4849624  0.7564935  0.2522375

 Al 
  0.7407579  0.4860180  0.2505161

 Al 
  0.7611331  0.7514393  0.0096505

 Al 
  0.5088436  0.9812410  0.5086320

 Al 
  0.4698010  0.2510742  0.7472180

 Al 
  0.7480706  0.9849389  0.7499554

 Al 
  0.7386379  0.2508057  0.5081852

 Al 
  0.4857173  0.4964432  0.5072162

 Al 
  0.4911403  0.7407393  0.7581283

 Al 
  0.7388830  0.5032226  0.7450361

 Al 
  0.7660759  0.7454124  0.5047498

