32 
charge = 0 
 Al 
  0.0123546  0.0119808  0.0076791

 Al 
  0.0321358  0.2629560  0.2515358

 Al 
  0.2430028  0.9951797  0.2606307

 Al 
  0.2549094  0.2629511  0.9995037

 Al 
  0.5126330  0.9994889  0.9867779

 Al 
  0.4722105  0.2182107  0.2428729

 Al 
  0.7543352  0.0254839  0.2477390

 Al 
  0.7647505  0.2513972  0.9928741

 Al 
  0.9951351  0.4910871  0.9837706

 Al 
  0.9963616  0.7584550  0.2620588

 Al 
  0.2452379  0.5053426  0.2312559

 Al 
  0.2529528  0.7626949  0.9932565

 Al 
  0.9937478  0.0075467  0.5189359

 Al 
  0.0020754  0.2453530  0.7497537

 Al 
  0.2468690  0.9936303  0.7371739

 Al 
  0.2465992  0.2560034  0.4909386

 Al 
  0.0008613  0.4922714  0.5000718

 Al 
  0.0076271  0.7587941  0.7659683

 Al 
  0.2497500  0.4985100  0.7466363

 Al 
  0.2543414  0.7578635  0.5140698

 Al 
  0.5064848  0.5029974  0.9947602

 Al 
  0.4891973  0.7541038  0.2534169

 Al 
  0.7416427  0.4784466  0.2483318

 Al 
  0.7652146  0.7466710  0.0056618

 Al 
  0.5063747  0.9922603  0.5061977

 Al 
  0.4760408  0.2480100  0.7385216

 Al 
  0.7473058  0.9848955  0.7539788

 Al 
  0.7415660  0.2508539  0.5028402

 Al 
  0.4926551  0.4934261  0.5032919

 Al 
  0.4904955  0.7407418  0.7573338

 Al 
  0.7480929  0.5078127  0.7442540

 Al 
  0.7570393  0.7445820  0.5079080

