32 
charge = 0 
 Al 
  0.0122543  0.0119895  0.0074860

 Al 
  0.0323783  0.2633694  0.2516979

 Al 
  0.2430239  0.9943988  0.2608163

 Al 
  0.2552943  0.2631813  0.0001101

 Al 
  0.5124796  0.9994010  0.9865526

 Al 
  0.4718467  0.2180870  0.2430375

 Al 
  0.7536434  0.0254505  0.2472217

 Al 
  0.7648210  0.2510928  0.9925870

 Al 
  0.9948530  0.4912121  0.9836679

 Al 
  0.9963492  0.7584748  0.2622036

 Al 
  0.2452044  0.5051483  0.2315541

 Al 
  0.2532338  0.7627296  0.9933295

 Al 
  0.9934248  0.0071048  0.5193815

 Al 
  0.0020568  0.2461178  0.7499827

 Al 
  0.2468789  0.9936402  0.7374957

 Al 
  0.2465398  0.2561024  0.4911490

 Al 
  0.0008564  0.4926452  0.4995013

 Al 
  0.0072175  0.7590664  0.7661650

 Al 
  0.2495607  0.4980942  0.7466029

 Al 
  0.2540270  0.7576506  0.5139671

 Al 
  0.5064786  0.5034565  0.9952242

 Al 
  0.4896032  0.7539033  0.2534689

 Al 
  0.7417294  0.4779677  0.2482006

 Al 
  0.7654435  0.7463579  0.0054007

 Al 
  0.5061717  0.9931130  0.5060245

 Al 
  0.4766880  0.2477464  0.7379449

 Al 
  0.7472984  0.9849896  0.7542795

 Al 
  0.7417999  0.2508514  0.5025184

 Al 
  0.4931798  0.4932528  0.5029008

 Al 
  0.4905376  0.7408111  0.7572187

 Al 
  0.7487909  0.5080541  0.7442169

 Al 
  0.7563326  0.7445411  0.5080924

