32 
charge = 0 
 Al 
  0.0126293  0.0119202  0.0082496

 Al 
  0.0310777  0.2615477  0.2509591

 Al 
  0.2428914  0.9975261  0.2600218

 Al 
  0.2537040  0.2621021  0.9974902

 Al 
  0.5129956  0.9997661  0.9875377

 Al 
  0.4735483  0.2188369  0.2424026

 Al 
  0.7565294  0.0254579  0.2493589

 Al 
  0.7643966  0.2523130  0.9937157

 Al 
  0.9960782  0.4908099  0.9841741

 Al 
  0.9964247  0.7583436  0.2615675

 Al 
  0.2454482  0.5060690  0.2304366

 Al 
  0.2520766  0.7625353  0.9931291

 Al 
  0.9947453  0.0088746  0.5173840

 Al 
  0.0021249  0.2430041  0.7490273

 Al 
  0.2469185  0.9937676  0.7363187

 Al 
  0.2468343  0.2556544  0.4904188

 Al 
  0.0008675  0.4911997  0.5018935

 Al 
  0.0088449  0.7578758  0.7652393

 Al 
  0.2502760  0.4998230  0.7467576

 Al 
  0.2552312  0.7583857  0.5142666

 Al 
  0.5064749  0.5014876  0.9933394

 Al 
  0.4880303  0.7547052  0.2532276

 Al 
  0.7413940  0.4800109  0.2487624

 Al 
  0.7644287  0.7476895  0.0065170

 Al 
  0.5069799  0.9896305  0.5067410

 Al 
  0.4742018  0.2488058  0.7404027

 Al 
  0.7473702  0.9847000  0.7530419

 Al 
  0.7408656  0.2508564  0.5039119

 Al 
  0.4910301  0.4940176  0.5044131

 Al 
  0.4904497  0.7405871  0.7576259

 Al 
  0.7459334  0.5069601  0.7443901

 Al 
  0.7591963  0.7447379  0.5072793

