32 
charge = 0 
 Al 
  0.0118113  0.0119771  0.0067014

 Al 
  0.0328288  0.2647418  0.2522053

 Al 
  0.2430288  0.9912554  0.2614871

 Al 
  0.2567670  0.2638632  0.0022276

 Al 
  0.5116987  0.9990669  0.9857779

 Al 
  0.4707712  0.2179904  0.2437466

 Al 
  0.7510272  0.0251114  0.2452391

 Al 
  0.7648792  0.2498713  0.9913928

 Al 
  0.9938840  0.4918729  0.9834229

 Al 
  0.9963306  0.7584761  0.2627048

 Al 
  0.2452589  0.5046211  0.2328746

 Al 
  0.2543141  0.7627778  0.9937676

 Al 
  0.9921576  0.0053314  0.5208480

 Al 
  0.0019739  0.2491201  0.7508217

 Al 
  0.2470459  0.9939434  0.7389758

 Al 
  0.2463876  0.2564168  0.4921935

 Al 
  0.0008255  0.4942404  0.4973677

 Al 
  0.0055554  0.7600082  0.7667455

 Al 
  0.2487501  0.4965113  0.7464989

 Al 
  0.2526929  0.7566024  0.5133818

 Al 
  0.5064118  0.5051037  0.9970546

 Al 
  0.4913234  0.7530914  0.2536372

 Al 
  0.7421031  0.4762326  0.2477167

 Al 
  0.7661960  0.7452143  0.0044688

 Al 
  0.5053463  0.9964234  0.5053562

 Al 
  0.4794651  0.2467118  0.7358633

 Al 
  0.7473331  0.9855081  0.7554341

 Al 
  0.7427751  0.2508267  0.5013824

 Al 
  0.4952181  0.4926526  0.5012413

 Al 
  0.4908297  0.7411749  0.7566593

 Al 
  0.7514987  0.5088201  0.7441067

 Al 
  0.7535097  0.7444409  0.5086976

