32 
charge = 0 
 Al 
  0.0124511  0.0119672  0.0078709

 Al 
  0.0318375  0.2625142  0.2513588

 Al 
  0.2429731  0.9959606  0.2604364

 Al 
  0.2545171  0.2626949  0.9988652

 Al 
  0.5127704  0.9995792  0.9870167

 Al 
  0.4726140  0.2183753  0.2427120

 Al 
  0.7550468  0.0254963  0.2482674

 Al 
  0.7646565  0.2517029  0.9931575

 Al 
  0.9954322  0.4909782  0.9838894

 Al 
  0.9963764  0.7584266  0.2619041

 Al 
  0.2452898  0.5055604  0.2309712

 Al 
  0.2526669  0.7626504  0.9931996

 Al 
  0.9940746  0.0079897  0.5184558

 Al 
  0.0020940  0.2445795  0.7495186

 Al 
  0.2468714  0.9936476  0.7368695

 Al 
  0.2466672  0.2558957  0.4907467

 Al 
  0.0008638  0.4919063  0.5006609

 Al 
  0.0080355  0.7585045  0.7657480

 Al 
  0.2499332  0.4989357  0.7466734

 Al 
  0.2546458  0.7580565  0.5141552

 Al 
  0.5064861  0.5025160  0.9942911

 Al 
  0.4888013  0.7543042  0.2533600

 Al 
  0.7415573  0.4789453  0.2484691

 Al 
  0.7649708  0.7469977  0.0059341

 Al 
  0.5065764  0.9913965  0.5063747

 Al 
  0.4754109  0.2482736  0.7391243

 Al 
  0.7473194  0.9848163  0.7536731

 Al 
  0.7413321  0.2508552  0.5031781

 Al 
  0.4921229  0.4936117  0.5036743

 Al 
  0.4904671  0.7406799  0.7574390

 Al 
  0.7473850  0.5075504  0.7442948

 Al 
  0.7577521  0.7446290  0.5077125

