32 
charge = 0 
 Al 
  0.0120415  0.0119920  0.0070962

 Al 
  0.0327063  0.2641119  0.2519789

 Al 
  0.2430424  0.9928333  0.2611641

 Al 
  0.2560418  0.2635686  0.0012301

 Al 
  0.5121232  0.9992315  0.9861405

 Al 
  0.4712366  0.2179607  0.2433803

 Al 
  0.7523081  0.0253230  0.2462155

 Al 
  0.7648953  0.2504839  0.9920004

 Al 
  0.9943382  0.4915103  0.9835120

 Al 
  0.9963368  0.7584909  0.2624697

 Al 
  0.2451933  0.5048339  0.2321865

 Al 
  0.2537820  0.7627729  0.9935189

 Al 
  0.9927875  0.0062212  0.5201760

 Al 
  0.0020160  0.2476276  0.7504171

 Al 
  0.2469370  0.9937392  0.7381974

 Al 
  0.2464482  0.2562757  0.4916304

 Al 
  0.0008440  0.4934199  0.4984073

 Al 
  0.0063920  0.7595664  0.7664955

 Al 
  0.2491659  0.4972885  0.7465447

 Al 
  0.2533761  0.7571655  0.5137085

 Al 
  0.5064539  0.5043154  0.9961438

 Al 
  0.4904411  0.7534998  0.2535592

 Al 
  0.7419101  0.4770680  0.2479531

 Al 
  0.7658507  0.7457651  0.0049131

 Al 
  0.5057646  0.9947849  0.5056866

 Al 
  0.4780357  0.2472254  0.7368596

 Al 
  0.7473046  0.9852198  0.7548649

 Al 
  0.7422776  0.2508415  0.5019219

 Al 
  0.4942082  0.4929335  0.5020927

 Al 
  0.4906589  0.7409769  0.7569601

 Al 
  0.7501572  0.5084761  0.7441550

 Al 
  0.7549230  0.7444780  0.5084204

