32 
charge = 0 
 Al 
  0.0105378  0.0117568  0.0048228

 Al 
  0.0308413  0.2661514  0.2525865

 Al 
  0.2425734  0.9837025  0.2627457

 Al 
  0.2599067  0.2641429  0.0053203

 Al 
  0.5087867  0.9983701  0.9846839

 Al 
  0.4703220  0.2200782  0.2458208

 Al 
  0.7456017  0.0229654  0.2409596

 Al 
  0.7636404  0.2470212  0.9882295

 Al 
  0.9925870  0.4943703  0.9839798

 Al 
  0.9962254  0.7580367  0.2634238

 Al 
  0.2466140  0.5049453  0.2368868

 Al 
  0.2565801  0.7622457  0.9956698

 Al 
  0.9892320  0.0010977  0.5225546

 Al 
  0.0018031  0.2559415  0.7522858

 Al 
  0.2481548  0.9961710  0.7435832

 Al 
  0.2463727  0.2566408  0.4958950

 Al 
  0.0006448  0.4987525  0.4930783

 Al 
  0.0015828  0.7614017  0.7669583

 Al 
  0.2466660  0.4931625  0.7464717

 Al 
  0.2491213  0.7529677  0.5111282

 Al 
  0.5060158  0.5079885  0.0011893

 Al 
  0.4961598  0.7511014  0.2539354

 Al 
  0.7431959  0.4730236  0.2466598

 Al 
  0.7669992  0.7431711  0.0029714

 Al 
  0.5031954  0.0036384  0.5037981

 Al 
  0.4873088  0.2445225  0.7323684

 Al 
  0.7476697  0.9875910  0.7579291

 Al 
  0.7455324  0.2506584  0.4994295

 Al 
  0.4997909  0.4917318  0.4966920

 Al 
  0.4922219  0.7424905  0.7546248

 Al 
  0.7575021  0.5094686  0.7440362

 Al 
  0.7466153  0.7446909  0.5092830

