32 
charge = 0 
 Al 
  0.0112977  0.0119066  0.0058908

 Al 
  0.0324650  0.2656626  0.2524999

 Al 
  0.2429038  0.9880130  0.2620749

 Al 
  0.2581753  0.2641924  0.0038798

 Al 
  0.5106245  0.9987513  0.9851864

 Al 
  0.4702478  0.2185164  0.2445683

 Al 
  0.7485768  0.0244183  0.2433333

 Al 
  0.7645748  0.2486300  0.9900884

 Al 
  0.9931538  0.4927999  0.9834587

 Al 
  0.9963170  0.7583585  0.2630922

 Al 
  0.2456351  0.5044998  0.2344488

 Al 
  0.2553426  0.7626640  0.9944495

 Al 
  0.9908915  0.0035134  0.5218628

 Al 
  0.0018910  0.2521026  0.7515482

 Al 
  0.2474123  0.9946636  0.7407826

 Al 
  0.2463393  0.2565999  0.4935857

 Al 
  0.0007685  0.4960547  0.4954049

 Al 
  0.0038389  0.7607408  0.7670214

 Al 
  0.2478615  0.4950101  0.7464470

 Al 
  0.2512153  0.7552225  0.5125377

 Al 
  0.5062769  0.5065046  0.9988713

 Al 
  0.4932664  0.7522449  0.2537696

 Al 
  0.7425338  0.4747141  0.2472613

 Al 
  0.7667083  0.7442255  0.0037053

 Al 
  0.5044602  0.9996399  0.5046928

 Al 
  0.4826221  0.2457081  0.7341159

 Al 
  0.7474469  0.9862668  0.7565455

 Al 
  0.7438679  0.2507772  0.5004356

 Al 
  0.4972204  0.4921823  0.4993862

 Al 
  0.4913185  0.7416712  0.7559081

 Al 
  0.7541471  0.5092879  0.7440498

 Al 
  0.7505953  0.7444570  0.5090961

