32 
charge = 0 
 Al 
  0.0110106  0.0118546  0.0054725

 Al 
  0.0319761  0.2659497  0.2525717

 Al 
  0.2427937  0.9863286  0.2623496

 Al 
  0.2588696  0.2642344  0.0045394

 Al 
  0.5099611  0.9985991  0.9849537

 Al 
  0.4701797  0.2190151  0.2450349

 Al 
  0.7473826  0.0239221  0.2423878

 Al 
  0.7642790  0.2479939  0.9893792

 Al 
  0.9928791  0.4933691  0.9835973

 Al 
  0.9962960  0.7582545  0.2632456

 Al 
  0.2459556  0.5045963  0.2353534

 Al 
  0.2558425  0.7625377  0.9948876

 Al 
  0.9902418  0.0025704  0.5222155

 Al 
  0.0018526  0.2536174  0.7518662

 Al 
  0.2476709  0.9951834  0.7418259

 Al 
  0.2463430  0.2566432  0.4944285

 Al 
  0.0007264  0.4970695  0.4944631

 Al 
  0.0029528  0.7610378  0.7670511

 Al 
  0.2473937  0.4942701  0.7464432

 Al 
  0.2504133  0.7543958  0.5120204

 Al 
  0.5061853  0.5071308  0.9997896

 Al 
  0.4943530  0.7518007  0.2538327

 Al 
  0.7427788  0.4740149  0.2470286

 Al 
  0.7668742  0.7437800  0.0033823

 Al 
  0.5039800  0.0012388  0.5043476

 Al 
  0.4843857  0.2452218  0.7333585

 Al 
  0.7475274  0.9867432  0.7570974

 Al 
  0.7444854  0.2507388  0.5000136

 Al 
  0.4982340  0.4919855  0.4983639

 Al 
  0.4916403  0.7419707  0.7554465

 Al 
  0.7554775  0.5094141  0.7440374

 Al 
  0.7490595  0.7445176  0.5092149

