32 
charge = 0 
 Al 
  0.0111566  0.0118818  0.0056829

 Al 
  0.0322472  0.2658210  0.2525420

 Al 
  0.2428531  0.9871776  0.2622135

 Al 
  0.2585231  0.2642233  0.0042238

 Al 
  0.5103039  0.9986746  0.9850651

 Al 
  0.4701970  0.2187454  0.2447960

 Al 
  0.7479791  0.0241832  0.2428605

 Al 
  0.7644399  0.2483132  0.9897394

 Al 
  0.9930090  0.4930746  0.9835169

 Al 
  0.9963084  0.7583102  0.2631714

 Al 
  0.2457836  0.5045344  0.2348906

 Al 
  0.2555938  0.7626070  0.9946612

 Al 
  0.9905685  0.0030456  0.5220509

 Al 
  0.0018712  0.2528575  0.7517115

 Al 
  0.2475360  0.9949099  0.7412925

 Al 
  0.2463393  0.2566259  0.4939941

 Al 
  0.0007487  0.4965522  0.4949322

 Al 
  0.0033983  0.7608955  0.7670462

 Al 
  0.2476288  0.4946401  0.7464432

 Al 
  0.2508193  0.7548215  0.5122865

 Al 
  0.5062324  0.5068239  0.9993292

 Al 
  0.4937986  0.7520247  0.2538018

 Al 
  0.7426538  0.4743602  0.2471462

 Al 
  0.7667987  0.7439991  0.0035394

 Al 
  0.5042238  0.0004393  0.5045221

 Al 
  0.4834872  0.2454631  0.7337273

 Al 
  0.7474853  0.9864957  0.7568214

 Al 
  0.7441698  0.2507599  0.5002203

 Al 
  0.4977254  0.4920808  0.4988837

 Al 
  0.4914732  0.7418160  0.7556854

 Al 
  0.7548116  0.5093597  0.7440424

 Al 
  0.7498366  0.7444829  0.5091629

