32 
charge = 0 
 Al 
  0.0101926  0.0116776  0.0043748

 Al 
  0.0298116  0.2661242  0.2525345

 Al 
  0.2423939  0.9818883  0.2630018

 Al 
  0.2605948  0.2639807  0.0056977

 Al 
  0.5078758  0.9982191  0.9845577

 Al 
  0.4705794  0.2210064  0.2464086

 Al 
  0.7444174  0.0221746  0.2399993

 Al 
  0.7630736  0.2463628  0.9874004

 Al 
  0.9924806  0.4951376  0.9843671

 Al 
  0.9961400  0.7578486  0.2635055

 Al 
  0.2471771  0.5053141  0.2380365

 Al 
  0.2570591  0.7619759  0.9962762

 Al 
  0.9885340  0.0000730  0.5226511

 Al 
  0.0017759  0.2575306  0.7525197

 Al 
  0.2485409  0.9969692  0.7448889

 Al 
  0.2464012  0.2565900  0.4970113

 Al 
  0.0005730  0.4999926  0.4921687

 Al 
  0.0006460  0.7615885  0.7668024

 Al 
  0.2461735  0.4924261  0.7465175

 Al 
  0.2481993  0.7518848  0.5104624

 Al 
  0.5058846  0.5085058  0.0021360

 Al 
  0.4974964  0.7506126  0.2540122

 Al 
  0.7435115  0.4723974  0.2463925

 Al 
  0.7669930  0.7428073  0.0027486

 Al 
  0.5026249  0.0052386  0.5034045

 Al 
  0.4894622  0.2440869  0.7318153

 Al 
  0.7477761  0.9882506  0.7584884

 Al 
  0.7463244  0.2505866  0.4990656

 Al 
  0.5008601  0.4915871  0.4954792

 Al 
  0.4926773  0.7428840  0.7539862

 Al 
  0.7588721  0.5094129  0.7440461

 Al 
  0.7448777  0.7448666  0.5092483

