32 
charge = 0 
 Al 
  0.0088164  0.0113249  0.0027647

 Al 
  0.0245867  0.2649559  0.2519950

 Al 
  0.2416502  0.9754195  0.2638545

 Al 
  0.2628929  0.2627902  0.0060542

 Al 
  0.5039082  0.9977018  0.9845243

 Al 
  0.4724865  0.2256287  0.2488429

 Al 
  0.7403817  0.0184001  0.2366925

 Al 
  0.7602000  0.2441513  0.9841976

 Al 
  0.9927677  0.4983800  0.9866702

 Al 
  0.9954594  0.7569081  0.2634857

 Al 
  0.2498713  0.5073833  0.2428147

 Al 
  0.2585553  0.7604945  0.9988280

 Al 
  0.9860069  0.9963269  0.5221103

 Al 
  0.0017425  0.2631281  0.7529937

 Al 
  0.2502153  0.0005544  0.7501559

 Al 
  0.2464606  0.2560839  0.5016645

 Al 
  0.0001893  0.5049837  0.4891528

 Al 
  0.9974036  0.7618633  0.7656403

 Al 
  0.2445634  0.4899844  0.7468813

 Al 
  0.2447243  0.7473628  0.5078461

 Al 
  0.5053190  0.5099277  0.0053834

 Al 
  0.5029739  0.7488305  0.2543636

 Al 
  0.7448777  0.4705002  0.2452836

 Al 
  0.7663148  0.7418655  0.0023328

 Al 
  0.5003428  0.0105898  0.5018291

 Al 
  0.4981981  0.2429372  0.7307052

 Al 
  0.7481758  0.9910735  0.7603955

 Al 
  0.7497389  0.2501770  0.4979246

 Al 
  0.5047164  0.4912034  0.4907480

 Al 
  0.4946302  0.7445015  0.7511992

 Al 
  0.7636058  0.5086407  0.7441092

 Al 
  0.7382295  0.7459272  0.5085577

