32 
charge = 0 
 Al 
  0.0100119  0.0116343  0.0041471

 Al 
  0.0292139  0.2660598  0.2524900

 Al 
  0.2422962  0.9809651  0.2631281

 Al 
  0.2609363  0.2638681  0.0058413

 Al 
  0.5073796  0.9981437  0.9845131

 Al 
  0.4707576  0.2215385  0.2467229

 Al 
  0.7438258  0.0217291  0.2395166

 Al 
  0.7627469  0.2460336  0.9869672

 Al 
  0.9924571  0.4955510  0.9846035

 Al 
  0.9960819  0.7577397  0.2635327

 Al 
  0.2474964  0.5055393  0.2386503

 Al 
  0.2572930  0.7618162  0.9966041

 Al 
  0.9881776  0.9995495  0.5226585

 Al 
  0.0017660  0.2583337  0.7526224

 Al 
  0.2487525  0.9974098  0.7455794

 Al 
  0.2464148  0.2565504  0.4976103

 Al 
  0.0005309  0.5006485  0.4917182

 Al 
  0.0001745  0.7616653  0.7666935

 Al 
  0.2459272  0.4920586  0.7465497

 Al 
  0.2477216  0.7513056  0.5101096

 Al 
  0.5058128  0.5087483  0.0026113

 Al 
  0.4982068  0.7503626  0.2540543

 Al 
  0.7436810  0.4720967  0.2462514

 Al 
  0.7669608  0.7426390  0.0026533

 Al 
  0.5023254  0.0060356  0.5031979

 Al 
  0.4906032  0.2438815  0.7315739

 Al 
  0.7478318  0.9886070  0.7587681

 Al 
  0.7467514  0.2505433  0.4988899

 Al 
  0.5014046  0.4915202  0.4948443

 Al 
  0.4929249  0.7430944  0.7536384

 Al 
  0.7595614  0.5093572  0.7440523

 Al 
  0.7439755  0.7449743  0.5092050

