32 
charge = 0 
 Al 
  0.0064551  0.0105614  0.0005779

 Al 
  0.0132630  0.2600342  0.2504715

 Al 
  0.2408160  0.9675449  0.2649077

 Al 
  0.2654572  0.2593881  0.0037746

 Al 
  0.4963145  0.9970843  0.9860749

 Al 
  0.4779801  0.2360514  0.2530357

 Al 
  0.7354982  0.0100936  0.2327620

 Al 
  0.7535035  0.2422133  0.9794849

 Al 
  0.9956326  0.5041830  0.9932850

 Al 
  0.9925907  0.7547461  0.2620959

 Al 
  0.2552658  0.5118187  0.2514405

 Al 
  0.2596418  0.7564304  0.0030308

 Al 
  0.9827137  0.9911242  0.5184075

 Al 
  0.0018143  0.2699223  0.7524615

 Al 
  0.2529776  0.0074749  0.7588733

 Al 
  0.2460188  0.2542646  0.5095565

 Al 
  0.9989852  0.5131763  0.4858311

 Al 
  0.9937949  0.7610081  0.7621764

 Al 
  0.2436736  0.4879783  0.7482278

 Al 
  0.2399597  0.7393409  0.5043438

 Al 
  0.5043166  0.5105453  0.0088919

 Al 
  0.5126776  0.7463504  0.2549899

 Al 
  0.7477241  0.4691921  0.2430003

 Al 
  0.7628929  0.7417875  0.0028365

 Al 
  0.4962947  0.0161836  0.4989196

 Al 
  0.5133471  0.2434149  0.7322979

 Al 
  0.7487402  0.9960064  0.7624845

 Al 
  0.7566952  0.2489753  0.4964346

 Al 
  0.5099908  0.4909448  0.4834526

 Al 
  0.4979197  0.7471276  0.7460101

 Al 
  0.7689755  0.5060839  0.7441872

 Al 
  0.7280704  0.7489505  0.5056742

