32 
charge = 0 
 Al 
  0.0068091  0.0106938  0.0008477

 Al 
  0.0150747  0.2609945  0.2507227

 Al 
  0.2408680  0.9683840  0.2647852

 Al 
  0.2651923  0.2599921  0.0043030

 Al 
  0.4974865  0.9971499  0.9856802

 Al 
  0.4769974  0.2343139  0.2524429

 Al 
  0.7360527  0.0114685  0.2331890

 Al 
  0.7546371  0.2423011  0.9800678

 Al 
  0.9949916  0.5033179  0.9920561

 Al 
  0.9932033  0.7551124  0.2624486

 Al 
  0.2544453  0.5111542  0.2501423

 Al 
  0.2596245  0.7571865  0.0024627

 Al 
  0.9830912  0.9917789  0.5191971

 Al 
  0.0018044  0.2691995  0.7526447

 Al 
  0.2526150  0.0064093  0.7576432

 Al 
  0.2461499  0.2546149  0.5084464

 Al 
  0.9992389  0.5120427  0.4861628

 Al 
  0.9941389  0.7612420  0.7628038

 Al 
  0.2435870  0.4880291  0.7479531

 Al 
  0.2405153  0.7405227  0.5047201

 Al 
  0.5044627  0.5106047  0.0085825

 Al 
  0.5112346  0.7466660  0.2549168

 Al 
  0.7472464  0.4692008  0.2433852

 Al 
  0.7636107  0.7416749  0.0026855

 Al 
  0.4969148  0.0156849  0.4993800

 Al 
  0.5111108  0.2430895  0.7317633

 Al 
  0.7486610  0.9953109  0.7622939

 Al 
  0.7555529  0.2492018  0.4966462

 Al 
  0.5093275  0.4909584  0.4844191

 Al 
  0.4974704  0.7467737  0.7467861

 Al 
  0.7684558  0.5065281  0.7441822

 Al 
  0.7294280  0.7483974  0.5062410

