32 
charge = 0 
 Al 
  0.0062843  0.0104945  0.0004567

 Al 
  0.0123831  0.2595416  0.2503490

 Al 
  0.2408037  0.9671984  0.2649609

 Al 
  0.2655673  0.2590862  0.0035023

 Al 
  0.4957514  0.9970558  0.9862928

 Al 
  0.4784738  0.2369091  0.2533105

 Al 
  0.7352582  0.0094166  0.2325825

 Al 
  0.7529429  0.2422046  0.9792312

 Al 
  0.9959730  0.5045963  0.9939112

 Al 
  0.9922677  0.7545654  0.2619004

 Al 
  0.2556569  0.5121294  0.2520593

 Al 
  0.2596270  0.7560443  0.0032919

 Al 
  0.9825528  0.9908297  0.5179929

 Al 
  0.0018167  0.2702218  0.7523613

 Al 
  0.2531397  0.0079860  0.7594476

 Al 
  0.2459445  0.2540852  0.5100725

 Al 
  0.9988478  0.5136998  0.4856987

 Al 
  0.9936612  0.7608794  0.7618608

 Al 
  0.2437528  0.4879981  0.7483714

 Al 
  0.2397220  0.7387815  0.5041929

 Al 
  0.5042473  0.5104933  0.0090045

 Al 
  0.5133632  0.7462081  0.2550183

 Al 
  0.7479617  0.4692193  0.2428073

 Al 
  0.7625167  0.7418581  0.0029157

 Al 
  0.4959940  0.0163705  0.4986956

 Al 
  0.5144102  0.2436129  0.7325962

 Al 
  0.7487773  0.9963282  0.7625551

 Al 
  0.7572583  0.2488602  0.4963319

 Al 
  0.5102916  0.4909410  0.4830145

 Al 
  0.4981251  0.7472885  0.7456425

 Al 
  0.7691773  0.5058660  0.7441884

 Al 
  0.7274504  0.7492302  0.5053834

