32 
charge = 0 
 Al 
  0.0050010  0.0099055  0.9998218

 Al 
  0.0058933  0.2552386  0.2494245

 Al 
  0.2410438  0.9659930  0.2651948

 Al 
  0.2659336  0.2567026  0.0012475

 Al 
  0.4917257  0.9969148  0.9886219

 Al 
  0.4825454  0.2435783  0.2550035

 Al 
  0.7341159  0.0042288  0.2318573

 Al 
  0.7485657  0.2429533  0.9781298

 Al 
  0.9991906  0.5075368  0.9992377

 Al 
  0.9892493  0.7531335  0.2598460

 Al 
  0.2583226  0.5140599  0.2563871

 Al 
  0.2589265  0.7526744  0.0048253

 Al 
  0.9818759  0.9891379  0.5141738

 Al 
  0.0017747  0.2712477  0.7513873

 Al 
  0.2539850  0.0116343  0.7631281

 Al 
  0.2451636  0.2525259  0.5133372

 Al 
  0.9974395  0.5168989  0.4853609

 Al 
  0.9934087  0.7595639  0.7592706

 Al 
  0.2452564  0.4892468  0.7497240

 Al 
  0.2387357  0.7350403  0.5038488

 Al 
  0.5037882  0.5095874  0.0089624

 Al 
  0.5180610  0.7453827  0.2549701

 Al 
  0.7498738  0.4701723  0.2412319

 Al 
  0.7590800  0.7427256  0.0035283

 Al 
  0.4937466  0.0165598  0.4969964

 Al 
  0.5218207  0.2460695  0.7355614

 Al 
  0.7490768  0.9983120  0.7625464

 Al 
  0.7616455  0.2478801  0.4955473

 Al 
  0.5120848  0.4909806  0.4805653

 Al 
  0.4993218  0.7482427  0.7431427

 Al 
  0.7695225  0.5042869  0.7441909

 Al 
  0.7238231  0.7515853  0.5029293

