32 
charge = 0 
 Al 
  0.0061160  0.0104265  0.0003465

 Al 
  0.0115205  0.2590404  0.2502289

 Al 
  0.2408024  0.9668977  0.2650079

 Al 
  0.2656614  0.2587867  0.0032251

 Al 
  0.4952032  0.9970311  0.9865254

 Al 
  0.4789689  0.2377580  0.2535704

 Al 
  0.7350416  0.0087483  0.2324241

 Al 
  0.7523860  0.2422182  0.9790023

 Al 
  0.9963257  0.5049973  0.9945448

 Al 
  0.9919336  0.7543847  0.2616925

 Al 
  0.2560331  0.5124239  0.2526595

 Al 
  0.2595961  0.7556519  0.0035357

 Al 
  0.9824093  0.9905549  0.5175660

 Al 
  0.0018180  0.2704792  0.7522548

 Al 
  0.2532894  0.0084835  0.7599933

 Al 
  0.2458653  0.2539020  0.5105626

 Al 
  0.9987043  0.5141936  0.4855873

 Al 
  0.9935511  0.7607433  0.7615440

 Al 
  0.2438567  0.4880476  0.7485199

 Al 
  0.2395117  0.7382444  0.5040654

 Al 
  0.5041817  0.5104277  0.0090899

 Al 
  0.5140253  0.7460757  0.2550406

 Al 
  0.7481981  0.4692664  0.2426155

 Al 
  0.7621294  0.7419385  0.0029961

 Al 
  0.4956982  0.0165177  0.4984741

 Al 
  0.5154386  0.2438357  0.7329117

 Al 
  0.7488144  0.9966338  0.7626095

 Al 
  0.7578164  0.2487439  0.4962304

 Al 
  0.5105725  0.4909398  0.4826061

 Al 
  0.4983169  0.7474407  0.7452874

 Al 
  0.7693431  0.5056532  0.7441896

 Al 
  0.7268700  0.7495124  0.5050889

