32 
charge = 0 
 Al 
  0.0053166  0.0100639  0.9999295

 Al 
  0.0074427  0.2563883  0.2496510

 Al 
  0.2409299  0.9660487  0.2651676

 Al 
  0.2659225  0.2572967  0.0018130

 Al 
  0.4926637  0.9969395  0.9879301

 Al 
  0.4814923  0.2419212  0.2546607

 Al 
  0.7342842  0.0055010  0.2319279

 Al 
  0.7496498  0.2426316  0.9782461

 Al 
  0.9982959  0.5068487  0.9978417

 Al 
  0.9900822  0.7534924  0.2604500

 Al 
  0.2577261  0.5136701  0.2553970

 Al 
  0.2592000  0.7535766  0.0045270

 Al 
  0.9819464  0.9894646  0.5152233

 Al 
  0.0017982  0.2712044  0.7516534

 Al 
  0.2538463  0.0107854  0.7623472

 Al 
  0.2453901  0.2529404  0.5126541

 Al 
  0.9978541  0.5162529  0.4853299

 Al 
  0.9933432  0.7599463  0.7599352

 Al 
  0.2447342  0.4887493  0.7493453

 Al 
  0.2388359  0.7358621  0.5037907

 Al 
  0.5038897  0.5098955  0.0091245

 Al 
  0.5170078  0.7455448  0.2550381

 Al 
  0.7493862  0.4698072  0.2416390

 Al 
  0.7600193  0.7424632  0.0033897

 Al 
  0.4942924  0.0167133  0.4974098

 Al 
  0.5201228  0.2453059  0.7347322

 Al 
  0.7490000  0.9979098  0.7626442

 Al 
  0.7605564  0.2481375  0.4957415

 Al 
  0.5117210  0.4909596  0.4810059

 Al 
  0.4990929  0.7480558  0.7436996

 Al 
  0.7696389  0.5046532  0.7441896

 Al 
  0.7245186  0.7509702  0.5035654

