32 
charge = 0 
 Al 
  0.0048426  0.0098213  0.9997785

 Al 
  0.0051285  0.2546371  0.2493094

 Al 
  0.2411143  0.9660240  0.2652010

 Al 
  0.2659200  0.2564044  0.0009653

 Al 
  0.4912702  0.9969036  0.9890018

 Al 
  0.4830875  0.2444112  0.2551544

 Al 
  0.7340577  0.0035951  0.2318474

 Al 
  0.7480211  0.2431476  0.9781137

 Al 
  0.9996646  0.5078721  0.9999579

 Al 
  0.9888112  0.7529516  0.2595181

 Al 
  0.2586060  0.5142320  0.2568635

 Al 
  0.2587632  0.7522041  0.0049552

 Al 
  0.9818648  0.9889956  0.5136194

 Al 
  0.0017586  0.2712205  0.7512499

 Al 
  0.2540357  0.0120477  0.7634870

 Al 
  0.2450423  0.2523105  0.5136491

 Al 
  0.9972130  0.5171873  0.4854042

 Al 
  0.9934719  0.7593572  0.7589315

 Al 
  0.2455572  0.4895438  0.7499257

 Al 
  0.2387221  0.7346555  0.5039144

 Al 
  0.5037412  0.5094129  0.0088424

 Al 
  0.5185610  0.7453096  0.2549193

 Al 
  0.7501225  0.4703876  0.2410227

 Al 
  0.7585862  0.7428679  0.0035902

 Al 
  0.4934743  0.0164361  0.4967910

 Al 
  0.5226412  0.2464927  0.7359970

 Al 
  0.7491176  0.9984926  0.7624734

 Al 
  0.7621937  0.2477476  0.4954495

 Al 
  0.5122494  0.4909943  0.4803871

 Al 
  0.4994208  0.7483243  0.7428803

 Al 
  0.7694161  0.5041099  0.7441921

 Al 
  0.7235248  0.7519034  0.5026051

