32 
charge = 0 
 Al 
  0.0057906  0.0102866  0.0001535

 Al 
  0.0098473  0.2580120  0.2499938

 Al 
  0.2408259  0.9664311  0.2650871

 Al 
  0.2658074  0.2581877  0.0026632

 Al 
  0.4941500  0.9969890  0.9870365

 Al 
  0.4799651  0.2394349  0.2540481

 Al 
  0.7346777  0.0074316  0.2321692

 Al 
  0.7512834  0.2423160  0.9786223

 Al 
  0.9970719  0.5057658  0.9958356

 Al 
  0.9912294  0.7540258  0.2612383

 Al 
  0.2567484  0.5129697  0.2538043

 Al 
  0.2594859  0.7548475  0.0039763

 Al 
  0.9821741  0.9900661  0.5166712

 Al 
  0.0018155  0.2708789  0.7520271

 Al 
  0.2535493  0.0094401  0.7610081

 Al 
  0.2456920  0.2535283  0.5114697

 Al 
  0.9983924  0.5150970  0.4854252

 Al 
  0.9934013  0.7604500  0.7609066

 Al 
  0.2441352  0.4882382  0.7488317

 Al 
  0.2391664  0.7372321  0.5038835

 Al 
  0.5040567  0.5102557  0.0091815

 Al 
  0.5152827  0.7458393  0.2550641

 Al 
  0.7486709  0.4694211  0.2422293

 Al 
  0.7613225  0.7421254  0.0031583

 Al 
  0.4951240  0.0166997  0.4980409

 Al 
  0.5173989  0.2443505  0.7335936

 Al 
  0.7488887  0.9971920  0.7626714

 Al 
  0.7589191  0.2485063  0.4960324

 Al 
  0.5110787  0.4909423  0.4818796

 Al 
  0.4986634  0.7477142  0.7446166

 Al 
  0.7695646  0.5052386  0.7441896

 Al 
  0.7258217  0.7500842  0.5044899

