32 
charge = 0 
 Al 
  0.0056321  0.0102136  0.0000705

 Al 
  0.0090330  0.2574823  0.2498787

 Al 
  0.2408519  0.9662628  0.2651193

 Al 
  0.2658594  0.2578907  0.0023811

 Al 
  0.4936426  0.9969704  0.9873162

 Al 
  0.4804688  0.2402666  0.2542659

 Al 
  0.7345268  0.0067831  0.2320702

 Al 
  0.7507376  0.2423989  0.9784701

 Al 
  0.9974655  0.5061346  0.9964940

 Al 
  0.9908594  0.7538476  0.2609908

 Al 
  0.2570863  0.5132184  0.2543500

 Al 
  0.2594067  0.7544329  0.0041743

 Al 
  0.9820813  0.9898495  0.5162046

 Al 
  0.0018118  0.2710225  0.7519058

 Al 
  0.2536607  0.0098993  0.7614784

 Al 
  0.2455968  0.2533365  0.5118868

 Al 
  0.9982229  0.5155091  0.4853745

 Al 
  0.9933605  0.7602903  0.7605849

 Al 
  0.2443109  0.4883781  0.7489963

 Al 
  0.2390315  0.7367568  0.5038290

 Al 
  0.5039986  0.5101493  0.0091877

 Al 
  0.5158779  0.7457329  0.2550641

 Al 
  0.7489085  0.4695300  0.2420338

 Al 
  0.7609005  0.7422306  0.0032375

 Al 
  0.4948443  0.0167380  0.4978293

 Al 
  0.5183333  0.2446451  0.7339587

 Al 
  0.7489246  0.9974469  0.7626776

 Al 
  0.7594661  0.2483850  0.4959358

 Al 
  0.5113076  0.4909460  0.4815591

 Al 
  0.4988181  0.7478367  0.7442998

 Al 
  0.7696228  0.5050394  0.7441896

 Al 
  0.7253515  0.7503750  0.5041854

