32 
charge = 0 
 Al 
  0.0028167  0.0085899  0.9997735

 Al 
  0.9967935  0.2464395  0.2478244

 Al 
  0.2424694  0.9689446  0.2648421

 Al 
  0.2648235  0.2530877  0.9980471

 Al 
  0.4866950  0.9967341  0.9950720

 Al 
  0.4901973  0.2542300  0.2559007

 Al 
  0.7345540  0.9965323  0.2329513

 Al 
  0.7418952  0.2469494  0.9801965

 Al 
  0.0063264  0.5113769  0.0091307

 Al 
  0.9828103  0.7507623  0.2545023

 Al 
  0.2611108  0.5149733  0.2614487

 Al 
  0.2556816  0.7458393  0.0055839

 Al 
  0.9828907  0.9880946  0.5058500

 Al 
  0.0013205  0.2687738  0.7496844

 Al 
  0.2538216  0.0161465  0.7660623

 Al 
  0.2433568  0.2494753  0.5158049

 Al 
  0.9936129  0.5188444  0.4872358

 Al 
  0.9954878  0.7561210  0.7546866

 Al 
  0.2507524  0.4951500  0.7529182

 Al 
  0.2402208  0.7316098  0.5063673

 Al 
  0.5033055  0.5063871  0.0057658

 Al 
  0.5227798  0.7447069  0.2532894

 Al 
  0.7532350  0.4745928  0.2383496

 Al 
  0.7517945  0.7449037  0.0036112

 Al 
  0.4903792  0.0130885  0.4945634

 Al 
  0.5306408  0.2532177  0.7415945

 Al 
  0.7496411  0.9995978  0.7604005

 Al 
  0.7684892  0.2460225  0.4943270

 Al 
  0.5135897  0.4913507  0.4804973

 Al 
  0.4998305  0.7488491  0.7406131

 Al 
  0.7660537  0.5025296  0.7443877

 Al 
  0.7226264  0.7560789  0.4987154

