32 
charge = 0 
 Al 
  0.0013947  0.0075739  0.0000557

 Al 
  0.9924199  0.2408099  0.2467093

 Al 
  0.2435461  0.9723751  0.2641837

 Al 
  0.2634597  0.2515012  0.9969061

 Al 
  0.4847050  0.9965373  0.9999022

 Al 
  0.4950337  0.2598052  0.2554601

 Al 
  0.7356963  0.9929348  0.2345045

 Al 
  0.7388001  0.2501386  0.9834204

 Al 
  0.0109054  0.5129263  0.0148012

 Al 
  0.9788290  0.7494716  0.2507784

 Al 
  0.2619016  0.5143359  0.2633236

 Al 
  0.2530753  0.7416650  0.0053772

 Al 
  0.9844067  0.9879400  0.5003948

 Al 
  0.0008329  0.2659918  0.7490471

 Al 
  0.2531471  0.0178048  0.7662319

 Al 
  0.2423048  0.2477241  0.5158940

 Al 
  0.9908024  0.5185201  0.4892443

 Al 
  0.9974469  0.7535926  0.7520593

 Al 
  0.2549032  0.4997475  0.7551408

 Al 
  0.2423308  0.7311272  0.5089352

 Al 
  0.5030865  0.5039156  0.0028031

 Al 
  0.5236436  0.7443641  0.2513873

 Al 
  0.7552176  0.4784330  0.2366937

 Al 
  0.7471771  0.7462700  0.0027164

 Al 
  0.4887085  0.0099265  0.4935325

 Al 
  0.5338696  0.2583003  0.7448134

 Al 
  0.7499270  0.9995570  0.7582261

 Al 
  0.7717861  0.2449260  0.4937553

 Al 
  0.5141008  0.4918247  0.4824266

 Al 
  0.4995966  0.7489840  0.7399597

 Al 
  0.7627308  0.5021348  0.7447391

 Al 
  0.7242141  0.7588436  0.4965806

