32 
charge = 0 
 Al 
  0.0018910  0.0079427  0.9999480

 Al 
  0.9938196  0.2427219  0.2471066

 Al 
  0.2431786  0.9711264  0.2644473

 Al 
  0.2639671  0.2519813  0.9972204

 Al 
  0.4853015  0.9966140  0.9982117

 Al 
  0.4933828  0.2579996  0.2556792

 Al 
  0.7352557  0.9940585  0.2339265

 Al 
  0.7397592  0.2490335  0.9821816

 Al 
  0.0093560  0.5124734  0.0129263

 Al 
  0.9801619  0.7498936  0.2520581

 Al 
  0.2616987  0.5146342  0.2627692

 Al 
  0.2539874  0.7430548  0.0054799

 Al 
  0.9838325  0.9879783  0.5022573

 Al 
  0.0010099  0.2669954  0.7492203

 Al 
  0.2534058  0.0173321  0.7662851

 Al 
  0.2426489  0.2482946  0.5159571

 Al 
  0.9917776  0.5187243  0.4885167

 Al 
  0.9967526  0.7544738  0.7529305

 Al 
  0.2534615  0.4981560  0.7543760

 Al 
  0.2415425  0.7311754  0.5080169

 Al 
  0.5031607  0.5047770  0.0038587

 Al 
  0.5235112  0.7444904  0.2520952

 Al 
  0.7545493  0.4770506  0.2372370

 Al 
  0.7487389  0.7458096  0.0031050

 Al 
  0.4892419  0.0110465  0.4938394

 Al 
  0.5329390  0.2565566  0.7437874

 Al 
  0.7498404  0.9996164  0.7590169

 Al 
  0.7707527  0.2452898  0.4939322

 Al 
  0.5139424  0.4916366  0.4816321

 Al 
  0.4997030  0.7489394  0.7401218

 Al 
  0.7639127  0.5022078  0.7446018

 Al 
  0.7235199  0.7579142  0.4972588

