32 
charge = 0 
 Al 
  0.0008849  0.0071741  0.0001683

 Al 
  0.9911168  0.2389226  0.2462898

 Al 
  0.2439075  0.9736832  0.2638756

 Al 
  0.2629127  0.2510866  0.9966759

 Al 
  0.4841926  0.9964519  0.0016224

 Al 
  0.4966809  0.2615007  0.2551730

 Al 
  0.7361839  0.9919237  0.2351220

 Al 
  0.7379511  0.2512388  0.9847953

 Al 
  0.0124276  0.5132927  0.0166019

 Al 
  0.9775370  0.7490718  0.2495000

 Al 
  0.2620353  0.5139597  0.2637939

 Al 
  0.2521534  0.7403322  0.0052535

 Al 
  0.9850342  0.9879065  0.4985459

 Al 
  0.0006460  0.2649473  0.7489221

 Al 
  0.2528687  0.0181773  0.7660710

 Al 
  0.2419831  0.2471920  0.5157406

 Al 
  0.9898235  0.5182293  0.4900042

 Al 
  0.9981560  0.7527004  0.7512190

 Al 
  0.2563549  0.5013366  0.7559032

 Al 
  0.2431810  0.7311952  0.5098782

 Al 
  0.5030073  0.5030494  0.0017140

 Al 
  0.5236065  0.7442193  0.2506274

 Al 
  0.7558784  0.4798834  0.2361789

 Al 
  0.7456450  0.7467217  0.0022363

 Al 
  0.4882172  0.0087780  0.4932763

 Al 
  0.5346171  0.2600292  0.7457490

 Al 
  0.7499988  0.9994592  0.7573932

 Al 
  0.7727105  0.2445770  0.4936006

 Al 
  0.5142481  0.4920449  0.4833573

 Al 
  0.4994728  0.7490359  0.7398557

 Al 
  0.7615180  0.5021323  0.7448926

 Al 
  0.7250520  0.7597483  0.4959618

