32 
charge = 0 
 Al 
  0.0025952  0.0084402  0.9998107

 Al 
  0.9960373  0.2455361  0.2476548

 Al 
  0.2426402  0.9694421  0.2647592

 Al 
  0.2646317  0.2527981  0.9978207

 Al 
  0.4863262  0.9967081  0.9958170

 Al 
  0.4909707  0.2551780  0.2558735

 Al 
  0.7347050  0.9958950  0.2331679

 Al 
  0.7413433  0.2474444  0.9806272

 Al 
  0.0070640  0.5116690  0.0100725

 Al 
  0.9821605  0.7505458  0.2539144

 Al 
  0.2612779  0.5149225  0.2618014

 Al 
  0.2552807  0.7451537  0.0055727

 Al 
  0.9830974  0.9880588  0.5049800

 Al 
  0.0012499  0.2683654  0.7495570

 Al 
  0.2537325  0.0164670  0.7661589

 Al 
  0.2431798  0.2491807  0.5158779

 Al 
  0.9931748  0.5188518  0.4875291

 Al 
  0.9957836  0.7557299  0.7542523

 Al 
  0.2513984  0.4958665  0.7532684

 Al 
  0.2405153  0.7314613  0.5067484

 Al 
  0.5032696  0.5060047  0.0053215

 Al 
  0.5230149  0.7446562  0.2530221

 Al 
  0.7535568  0.4751621  0.2380736

 Al 
  0.7510495  0.7451252  0.0035184

 Al 
  0.4900896  0.0126108  0.4943728

 Al 
  0.5312608  0.2540208  0.7421501

 Al 
  0.7496931  0.9996213  0.7600849

 Al 
  0.7690696  0.2458418  0.4942243

 Al 
  0.5136825  0.4914126  0.4807213

 Al 
  0.4998107  0.7488726  0.7404708

 Al 
  0.7655549  0.5024306  0.7444334

 Al 
  0.7227848  0.7565281  0.4983454

