32 
charge = 0 
 Al 
  0.9998552  0.0063004  0.0003775

 Al 
  0.9888867  0.2353856  0.2454025

 Al 
  0.2445733  0.9763502  0.2631404

 Al 
  0.2617420  0.2504913  0.9964878

 Al 
  0.4834476  0.9962601  0.0049948

 Al 
  0.4998342  0.2644188  0.2544416

 Al 
  0.7372444  0.9903272  0.2364066

 Al 
  0.7366603  0.2532882  0.9878348

 Al 
  0.0152567  0.5137011  0.0198381

 Al 
  0.9751980  0.7483738  0.2470620

 Al 
  0.2620860  0.5130241  0.2644782

 Al 
  0.2503737  0.7379808  0.0049775

 Al 
  0.9864041  0.9878323  0.4950448

 Al 
  0.0002648  0.2628484  0.7488379

 Al 
  0.2522858  0.0185832  0.7654683

 Al 
  0.2414336  0.2462997  0.5151923

 Al 
  0.9879511  0.5174348  0.4915326

 Al 
  0.9995409  0.7509653  0.7497055

 Al 
  0.2591567  0.5043364  0.7573437

 Al 
  0.2449817  0.7316519  0.5117135

 Al 
  0.5028340  0.5014046  0.9995570

 Al 
  0.5230174  0.7438654  0.2490298

 Al 
  0.7571308  0.4828808  0.2352953

 Al 
  0.7427924  0.7475707  0.0010334

 Al 
  0.4873967  0.0065108  0.4929434

 Al 
  0.5355069  0.2632630  0.7472613

 Al 
  0.7500903  0.9991820  0.7556841

 Al 
  0.7741523  0.2439520  0.4933716

 Al 
  0.5145154  0.4925796  0.4855366

 Al 
  0.4992067  0.7491807  0.7398186

 Al 
  0.7591283  0.5023600  0.7452267

 Al 
  0.7270519  0.7613992  0.4949569

