32 
charge = 0 
 Al 
  0.9978516  0.0042721  0.0005668

 Al 
  0.9860836  0.2298141  0.2434966

 Al 
  0.2455584  0.9813970  0.2612532

 Al 
  0.2592582  0.2502054  0.9971784

 Al 
  0.4830206  0.9958715  0.0109005

 Al 
  0.5051804  0.2681216  0.2526434

 Al 
  0.7393953  0.9889325  0.2388855

 Al 
  0.7358534  0.2563116  0.9944174

 Al 
  0.0195844  0.5129981  0.0243911

 Al 
  0.9719296  0.7475063  0.2430375

 Al 
  0.2614376  0.5106604  0.2650116

 Al 
  0.2474704  0.7350663  0.0045419

 Al 
  0.9893990  0.9875563  0.4893409

 Al 
  0.9995000  0.2590181  0.7493515

 Al 
  0.2511794  0.0180437  0.7634672

 Al 
  0.2408173  0.2453777  0.5133013

 Al 
  0.9849376  0.5152765  0.4943010

 Al 
  0.0018799  0.7479766  0.7475434

 Al 
  0.2638421  0.5089612  0.7596022

 Al 
  0.2486016  0.7335862  0.5146317

 Al 
  0.5024145  0.4988590  0.9958220

 Al 
  0.5200188  0.7428494  0.2459235

 Al 
  0.7591901  0.4888310  0.2343089

 Al 
  0.7383100  0.7489976  0.9978046

 Al 
  0.4864858  0.0025073  0.4929768

 Al 
  0.5349215  0.2681526  0.7486981

 Al 
  0.7500594  0.9985001  0.7524219

 Al 
  0.7752166  0.2430919  0.4932677

 Al 
  0.5149510  0.4940077  0.4906354

 Al 
  0.4988305  0.7497488  0.7403742

 Al 
  0.7550691  0.5037659  0.7459396

 Al 
  0.7317521  0.7637394  0.4939656

