32 
charge = 0 
 Al 
  0.9990929  0.0055864  0.0004963

 Al 
  0.9875811  0.2330466  0.2447082

 Al 
  0.2449990  0.9783018  0.2624957

 Al 
  0.2608287  0.2502525  0.9965880

 Al 
  0.4831333  0.9961103  0.0073598

 Al 
  0.5019987  0.2661341  0.2537993

 Al 
  0.7380637  0.9895315  0.2373632

 Al 
  0.7360848  0.2546074  0.9902604

 Al 
  0.0171019  0.5136862  0.0218554

 Al 
  0.9737377  0.7479630  0.2454099

 Al 
  0.2619474  0.5122024  0.2647864

 Al 
  0.2491646  0.7365885  0.0047819

 Al 
  0.9874932  0.9877531  0.4926897

 Al 
  0.9999790  0.2613385  0.7489246

 Al 
  0.2518539  0.0185845  0.7648186

 Al 
  0.2411254  0.2458146  0.5145970

 Al 
  0.9866925  0.5166984  0.4926278

 Al 
  0.0004963  0.7497612  0.7487575

 Al 
  0.2610762  0.5063103  0.7582991

 Al 
  0.2463541  0.7322385  0.5129536

 Al 
  0.5026905  0.5003156  0.9980422

 Al 
  0.5221573  0.7435362  0.2478306

 Al 
  0.7579798  0.4851319  0.2347953

 Al 
  0.7409151  0.7481474  0.9999431

 Al 
  0.4869412  0.0049119  0.4928543

 Al 
  0.5356393  0.2653693  0.7480409

 Al 
  0.7501101  0.9989320  0.7544243

 Al 
  0.7748342  0.2435672  0.4932788

 Al 
  0.5146936  0.4930597  0.4873645

 Al 
  0.4990273  0.7493404  0.7399337

 Al 
  0.7574687  0.5027400  0.7454891

 Al 
  0.7287387  0.7624375  0.4944310

