32 
charge = 0 
 Al 
  0.9966078  0.0027301  0.0004307

 Al 
  0.9853299  0.2273254  0.2421848

 Al 
  0.2459507  0.9843857  0.2597631

 Al 
  0.2575726  0.2505124  0.9982687

 Al 
  0.4833449  0.9956673  0.0140179

 Al 
  0.5079390  0.2691847  0.2514541

 Al 
  0.7406329  0.9891243  0.2403371

 Al 
  0.7364660  0.2574291  0.9986758

 Al 
  0.0213715  0.5114140  0.0259727

 Al 
  0.9708802  0.7473355  0.2410574

 Al 
  0.2606344  0.5088931  0.2650042

 Al 
  0.2461636  0.7345565  0.0044490

 Al 
  0.9914893  0.9872630  0.4866071

 Al 
  0.9989864  0.2568883  0.7501349

 Al 
  0.2505569  0.0168531  0.7618472

 Al 
  0.2407480  0.2453827  0.5116294

 Al 
  0.9836060  0.5136256  0.4958096

 Al 
  0.0030172  0.7464074  0.7467365

 Al 
  0.2661007  0.5108386  0.7605477

 Al 
  0.2508057  0.7353497  0.5157876

 Al 
  0.5020865  0.4978516  0.9940040

 Al 
  0.5170487  0.7419707  0.2441377

 Al 
  0.7601554  0.4925635  0.2342619

 Al 
  0.7362569  0.7497661  0.9952440

 Al 
  0.4863843  0.0003750  0.4933828

 Al 
  0.5331258  0.2700460  0.7486696

 Al 
  0.7499183  0.9980917  0.7504975

 Al 
  0.7747116  0.2427949  0.4934285

 Al 
  0.5151688  0.4951624  0.4941463

 Al 
  0.4988119  0.7503960  0.7411316

 Al 
  0.7531409  0.5052955  0.7464296

 Al 
  0.7349871  0.7645203  0.4939508

