32 
charge = 0 
 Al 
  0.9952923  0.0008255  0.0000210

 Al 
  0.9852532  0.2254628  0.2407282

 Al 
  0.2462180  0.9874722  0.2579291

 Al 
  0.2556656  0.2510915  0.9998899

 Al 
  0.4840775  0.9955299  0.0168593

 Al 
  0.5104265  0.2694792  0.2502809

 Al 
  0.7417405  0.9900129  0.2417875

 Al 
  0.7379016  0.2580231  0.0030927

 Al 
  0.0225174  0.5088040  0.0266682

 Al 
  0.9705831  0.7474605  0.2393248

 Al 
  0.2595540  0.5067992  0.2648767

 Al 
  0.2451846  0.7350849  0.0045344

 Al 
  0.9939087  0.9868682  0.4843386

 Al 
  0.9983912  0.2548277  0.7513143

 Al 
  0.2499517  0.0149782  0.7599587

 Al 
  0.2409101  0.2458257  0.5095008

 Al 
  0.9826704  0.5116875  0.4972303

 Al 
  0.0039590  0.7449495  0.7462786

 Al 
  0.2679162  0.5120204  0.7611430

 Al 
  0.2530345  0.7375588  0.5164126

 Al 
  0.5017041  0.4972724  0.9925796

 Al 
  0.5131899  0.7408717  0.2424348

 Al 
  0.7608782  0.4965460  0.2346765

 Al 
  0.7346282  0.7505297  0.9921848

 Al 
  0.4866405  0.9984073  0.4940263

 Al 
  0.5302572  0.2710930  0.7480706

 Al 
  0.7496956  0.9977464  0.7485434

 Al 
  0.7733194  0.2426365  0.4937515

 Al 
  0.5153458  0.4965856  0.4979642

 Al 
  0.4990100  0.7513762  0.7422566

 Al 
  0.7516410  0.5073796  0.7470162

 Al 
  0.7385340  0.7647975  0.4943283

