32 
charge = 0 
 Al 
  0.9941451  0.9989456  0.9994419

 Al 
  0.9856864  0.2244084  0.2394510

 Al 
  0.2463739  0.9901329  0.2561433

 Al 
  0.2539317  0.2516967  0.0016064

 Al 
  0.4849760  0.9955089  0.0189842

 Al 
  0.5122741  0.2692094  0.2494035

 Al 
  0.7424905  0.9911898  0.2429892

 Al 
  0.7396515  0.2581394  0.0067311

 Al 
  0.0229580  0.5058846  0.0265705

 Al 
  0.9709371  0.7477897  0.2380365

 Al 
  0.2584909  0.5048141  0.2647468

 Al 
  0.2446042  0.7363113  0.0047461

 Al 
  0.9961747  0.9864821  0.4828177

 Al 
  0.9978244  0.2531682  0.7525766

 Al 
  0.2494629  0.0129338  0.7582446

 Al 
  0.2412183  0.2465125  0.5074080

 Al 
  0.9822249  0.5098757  0.4983380

 Al 
  0.0045901  0.7438147  0.7461462

 Al 
  0.2690523  0.5124858  0.7613410

 Al 
  0.2548723  0.7396775  0.5164955

 Al 
  0.5013700  0.4971140  0.9917504

 Al 
  0.5094080  0.7398173  0.2411316

 Al 
  0.7612457  0.5000334  0.2353807

 Al 
  0.7335973  0.7511819  0.9893557

 Al 
  0.4871294  0.9969073  0.4946834

 Al 
  0.5271558  0.2712923  0.7472427

 Al 
  0.7494579  0.9975496  0.7468999

 Al 
  0.7715212  0.2425920  0.4941253

 Al 
  0.5154473  0.4979679  0.5012611

 Al 
  0.4993391  0.7524677  0.7434620

 Al 
  0.7507351  0.5094636  0.7476016

 Al 
  0.7416551  0.7646329  0.4948852

