32 
charge = 0 
 Al 
  0.9929075  0.9967229  0.9986164

 Al 
  0.9865737  0.2237847  0.2381293

 Al 
  0.2465039  0.9929793  0.2540666

 Al 
  0.2520445  0.2523551  0.0036805

 Al 
  0.4861591  0.9956166  0.0209247

 Al 
  0.5139609  0.2685251  0.2486535

 Al 
  0.7430610  0.9927219  0.2442292

 Al 
  0.7419014  0.2579452  0.0103275

 Al 
  0.0229296  0.5022487  0.0258539

 Al 
  0.9718714  0.7483330  0.2368076

 Al 
  0.2572769  0.5025494  0.2646317

 Al 
  0.2441909  0.7382592  0.0050950

 Al 
  0.9987451  0.9860551  0.4815925

 Al 
  0.9971635  0.2515024  0.7541137

 Al 
  0.2489691  0.0104240  0.7563809

 Al 
  0.2417009  0.2474952  0.5049800

 Al 
  0.9820949  0.5078239  0.4994159

 Al 
  0.0051074  0.7427058  0.7462180

 Al 
  0.2698579  0.5125254  0.7612544

 Al 
  0.2567323  0.7420734  0.5161688

 Al 
  0.5010284  0.4972204  0.9912603

 Al 
  0.5050678  0.7386305  0.2399337

 Al 
  0.7613695  0.5037721  0.2364351

 Al 
  0.7328412  0.7518947  0.9862804

 Al 
  0.4878905  0.9954953  0.4954247

 Al 
  0.5233850  0.2708740  0.7461821

 Al 
  0.7491733  0.9974692  0.7451933

 Al 
  0.7691092  0.2426093  0.4945857

 Al 
  0.5154881  0.4995805  0.5046755

 Al 
  0.4998045  0.7538600  0.7449396

 Al 
  0.7501064  0.5118509  0.7483157

 Al 
  0.7449854  0.7640983  0.4956314

