32 
charge = 0 
 Al 
  0.9925895  0.9961227  0.9983738

 Al 
  0.9868633  0.2237018  0.2378051

 Al 
  0.2465361  0.9937082  0.2535110

 Al 
  0.2515630  0.2525172  0.0042424

 Al 
  0.4864957  0.9956698  0.0213665

 Al 
  0.5143458  0.2682949  0.2484964

 Al 
  0.7431687  0.9931476  0.2445399

 Al 
  0.7425264  0.2578523  0.0111888

 Al 
  0.0228454  0.5012499  0.0255792

 Al 
  0.9721982  0.7485001  0.2365106

 Al 
  0.2569563  0.5019492  0.2646094

 Al 
  0.2441117  0.7388471  0.0052027

 Al 
  0.9994233  0.9859475  0.4813413

 Al 
  0.9969853  0.2510940  0.7545307

 Al 
  0.2488466  0.0097371  0.7559032

 Al 
  0.2418482  0.2477811  0.5043339

 Al 
  0.9821172  0.5072806  0.4996758

 Al 
  0.0052163  0.7424385  0.7462650

 Al 
  0.2699990  0.5124684  0.7611839

 Al 
  0.2571902  0.7426996  0.5160202

 Al 
  0.5009467  0.4972848  0.9911997

 Al 
  0.5039218  0.7383199  0.2396614

 Al 
  0.7613546  0.5047275  0.2367507

 Al 
  0.7327026  0.7520828  0.9854995

 Al 
  0.4881219  0.9951648  0.4956153

 Al 
  0.5223590  0.2706698  0.7458938

 Al 
  0.7490953  0.9974729  0.7447651

 Al 
  0.7684224  0.2426229  0.4947119

 Al 
  0.5154844  0.5000136  0.5055220

 Al 
  0.4999369  0.7542523  0.7453443

 Al 
  0.7499950  0.5124734  0.7485149

 Al 
  0.7458319  0.7639077  0.4958406

