32 
charge = 0 
 Al 
  0.9932231  0.9973083  0.9988466

 Al 
  0.9863101  0.2238973  0.2384585

 Al 
  0.2464717  0.9922553  0.2546099

 Al 
  0.2525246  0.2521905  0.0031335

 Al 
  0.4858386  0.9955757  0.0204631

 Al 
  0.5135600  0.2687317  0.2488243

 Al 
  0.7429385  0.9923123  0.2439174

 Al 
  0.7412975  0.2580219  0.0094451

 Al 
  0.0229828  0.5032164  0.0260915

 Al 
  0.9715819  0.7481771  0.2371083

 Al 
  0.2575912  0.5031385  0.2646577

 Al 
  0.2442800  0.7377085  0.0049960

 Al 
  0.9980781  0.9861641  0.4818672

 Al 
  0.9973368  0.2519170  0.7537077

 Al 
  0.2490916  0.0110898  0.7568561

 Al 
  0.2415635  0.2472241  0.5056136

 Al 
  0.9820949  0.5083560  0.4991523

 Al 
  0.0049899  0.7429781  0.7461809

 Al 
  0.2696921  0.5125551  0.7613039

 Al 
  0.2562695  0.7414546  0.5162900

 Al 
  0.5011126  0.4971709  0.9913470

 Al 
  0.5061952  0.7389362  0.2402195

 Al 
  0.7613645  0.5028204  0.2361393

 Al 
  0.7330008  0.7517115  0.9870613

 Al 
  0.4876751  0.9958368  0.4952341

 Al 
  0.5243825  0.2710373  0.7464630

 Al 
  0.7492476  0.9974754  0.7456227

 Al 
  0.7697663  0.2425994  0.4944644

 Al 
  0.5154844  0.4991572  0.5038216

 Al 
  0.4996782  0.7534850  0.7445473

 Al 
  0.7502364  0.5112346  0.7481251

 Al 
  0.7441401  0.7642666  0.4954309

