32 
charge = 0 
 Al 
  0.9950151  0.0003874  0.9998985

 Al 
  0.9853200  0.2251621  0.2404163

 Al 
  0.2462613  0.9881182  0.2575108

 Al 
  0.2552497  0.2512338  0.0002834

 Al 
  0.4842755  0.9955151  0.0174038

 Al 
  0.5109005  0.2694520  0.2500545

 Al 
  0.7419410  0.9902690  0.2420846

 Al 
  0.7382889  0.2580813  0.0039961

 Al 
  0.0226684  0.5081456  0.0267004

 Al 
  0.9706190  0.7475224  0.2389968

 Al 
  0.2593040  0.5063314  0.2648446

 Al 
  0.2450238  0.7353225  0.0045740

 Al 
  0.9944446  0.9867766  0.4839340

 Al 
  0.9982587  0.2544156  0.7516026

 Al 
  0.2498305  0.0145129  0.7595466

 Al 
  0.2409707  0.2459693  0.5090119

 Al 
  0.9825318  0.5112581  0.4975088

 Al 
  0.0041260  0.7446636  0.7462254

 Al 
  0.2682281  0.5121764  0.7612173

 Al 
  0.2534887  0.7380588  0.5164695

 Al 
  0.5016224  0.4972081  0.9923444

 Al 
  0.5123026  0.7406218  0.2421031

 Al 
  0.7609896  0.4973912  0.2348201

 Al 
  0.7343473  0.7506881  0.9915078

 Al 
  0.4867383  0.9980261  0.4941797

 Al 
  0.5295493  0.2711982  0.7478900

 Al 
  0.7496411  0.9976882  0.7481399

 Al 
  0.7729283  0.2426179  0.4938357

 Al 
  0.5153755  0.4969086  0.4987699

 Al 
  0.4990780  0.7516212  0.7425313

 Al 
  0.7513898  0.5078659  0.7471511

 Al 
  0.7392901  0.7647901  0.4944471

