32 
charge = 0 
 Al 
  0.9906985  0.9923506  0.9966920

 Al 
  0.9890525  0.2238466  0.2361046

 Al 
  0.2467489  0.9979877  0.2500569

 Al 
  0.2488256  0.2533377  0.0077385

 Al 
  0.4887394  0.9962106  0.0234642

 Al 
  0.5161861  0.2665846  0.2478974

 Al 
  0.7434855  0.9958010  0.2463343

 Al 
  0.7465237  0.2570157  0.0156502

 Al 
  0.0217155  0.4949755  0.0232550

 Al 
  0.9748342  0.7496807  0.2348844

 Al 
  0.2550183  0.4982984  0.2645265

 Al 
  0.2438159  0.7429335  0.0059663

 Al 
  0.0035506  0.9853658  0.4803945

 Al 
  0.9958653  0.2488218  0.7571246

 Al 
  0.2481709  0.0054317  0.7531063

 Al 
  0.2429125  0.2497092  0.5004109

 Al 
  0.9827298  0.5039379  0.5010754

 Al 
  0.0056792  0.7409943  0.7467576

 Al 
  0.2702775  0.5116554  0.7603708

 Al 
  0.2597112  0.7464135  0.5146193

 Al 
  0.5005210  0.4979073  0.9913928

 Al 
  0.4970026  0.7364932  0.2383768

 Al 
  0.7608460  0.5102928  0.2389424

 Al 
  0.7323610  0.7532437  0.9811383

 Al 
  0.4897777  0.9935003  0.4967031

 Al 
  0.5159200  0.2686847  0.7441649

 Al 
  0.7486238  0.9977365  0.7423085

 Al 
  0.7638706  0.2427702  0.4955052

 Al 
  0.5153383  0.5027288  0.5101703

 Al 
  0.5007463  0.7568400  0.7478974

 Al 
  0.7497178  0.5160747  0.7498267

 Al 
  0.7507351  0.7623707  0.4971437

