32 
charge = 0 
 Al 
  0.9913148  0.9936154  0.9972848

 Al 
  0.9882518  0.2236808  0.2366071

 Al 
  0.2466722  0.9966041  0.2512103

 Al 
  0.2496857  0.2531038  0.0065764

 Al 
  0.4879622  0.9959878  0.0228850

 Al 
  0.5156737  0.2672034  0.2480261

 Al 
  0.7434422  0.9949198  0.2457576

 Al 
  0.7451747  0.2573363  0.0143297

 Al 
  0.0222043  0.4970719  0.0241411

 Al 
  0.9738416  0.7492624  0.2353918

 Al 
  0.2556569  0.4995013  0.2645438

 Al 
  0.2438840  0.7414992  0.0056953

 Al 
  0.0021905  0.9855403  0.4805987

 Al 
  0.9962415  0.2495334  0.7562621

 Al 
  0.2483825  0.0068722  0.7540072

 Al 
  0.2425288  0.2490421  0.5017004

 Al 
  0.9824365  0.5050505  0.5006460

 Al 
  0.0055604  0.7414373  0.7465608

 Al 
  0.2702960  0.5120081  0.7607123

 Al 
  0.2589303  0.7452119  0.5151750

 Al 
  0.5006460  0.4976647  0.9912232

 Al 
  0.4992711  0.7370823  0.2387295

 Al 
  0.7610960  0.5085021  0.2381689

 Al 
  0.7323771  0.7528538  0.9824910

 Al 
  0.4891837  0.9939842  0.4963603

 Al 
  0.5180796  0.2694780  0.7447243

 Al 
  0.7487785  0.9976004  0.7430932

 Al 
  0.7654386  0.2427095  0.4952379

 Al 
  0.5154126  0.5018167  0.5087347

 Al 
  0.5004839  0.7559465  0.7470398

 Al 
  0.7497376  0.5149324  0.7493738

 Al 
  0.7491634  0.7629461  0.4967106

