32 
charge = 0 
 Al 
  0.9910042  0.9929805  0.9969915

 Al 
  0.9886454  0.2237501  0.2363460

 Al 
  0.2467093  0.9973046  0.2506312

 Al 
  0.2492463  0.2532276  0.0071605

 Al 
  0.4883496  0.9960943  0.0231919

 Al 
  0.5159435  0.2668977  0.2479531

 Al 
  0.7434706  0.9953641  0.2460497

 Al 
  0.7458505  0.2571791  0.0150141

 Al 
  0.0219729  0.4960188  0.0237105

 Al 
  0.9743255  0.7494691  0.2351332

 Al 
  0.2553351  0.4988961  0.2645339

 Al 
  0.2438456  0.7422120  0.0058289

 Al 
  0.0028761  0.9854500  0.4804824

 Al 
  0.9960522  0.2491708  0.7566965

 Al 
  0.2482748  0.0061482  0.7535506

 Al 
  0.2427182  0.2493750  0.5010495

 Al 
  0.9825726  0.5044924  0.5008663

 Al 
  0.0056247  0.7412096  0.7466561

 Al 
  0.2702997  0.5118398  0.7605490

 Al 
  0.2593300  0.7458208  0.5149077

 Al 
  0.5005817  0.4977835  0.9912950

 Al 
  0.4981263  0.7367841  0.2385426

 Al 
  0.7609809  0.5094092  0.2385525

 Al 
  0.7323573  0.7530494  0.9817979

 Al 
  0.4894758  0.9937317  0.4965348

 Al 
  0.5169967  0.2690956  0.7444409

 Al 
  0.7487006  0.9976622  0.7426947

 Al 
  0.7646577  0.2427392  0.4953715

 Al 
  0.5153792  0.5022734  0.5094711

 Al 
  0.5006175  0.7563920  0.7474692

 Al 
  0.7497191  0.5155141  0.7495990

 Al 
  0.7499604  0.7626652  0.4969296

