32 
charge = 0 
 Al 
  0.9892852  0.9893508  0.9951710

 Al 
  0.9912096  0.2246993  0.2352421

 Al 
  0.2469791  0.0010891  0.2473293

 Al 
  0.2470732  0.2536718  0.0104203

 Al 
  0.4906960  0.9969346  0.0243144

 Al 
  0.5169620  0.2649770  0.2478912

 Al 
  0.7433691  0.9978009  0.2476400

 Al 
  0.7497253  0.2561433  0.0180449

 Al 
  0.0200918  0.4901156  0.0207366

 Al 
  0.9776471  0.7507438  0.2337978

 Al 
  0.2535233  0.4955435  0.2645042

 Al 
  0.2437466  0.7465336  0.0066469

 Al 
  0.0066779  0.9850713  0.4803735

 Al 
  0.9949656  0.2473046  0.7591097

 Al 
  0.2477303  0.0020667  0.7511039

 Al 
  0.2439397  0.2513502  0.4974877

 Al 
  0.9838065  0.5012908  0.5019479

 Al 
  0.0058339  0.7400983  0.7473269

 Al 
  0.2697701  0.5105292  0.7592830

 Al 
  0.2613064  0.7490595  0.5129412

 Al 
  0.5002970  0.4985719  0.9922194

 Al 
  0.4918395  0.7352124  0.2378694

 Al 
  0.7599092  0.5142580  0.2409175

 Al 
  0.7327410  0.7542003  0.9784751

 Al 
  0.4913569  0.9926588  0.4974172

 Al 
  0.5107816  0.2662690  0.7429645

 Al 
  0.7482748  0.9982835  0.7405784

 Al 
  0.7599995  0.2429632  0.4961512

 Al 
  0.5150463  0.5049193  0.5130600

 Al 
  0.5012722  0.7590750  0.7499319

 Al 
  0.7499344  0.5184298  0.7509752

 Al 
  0.7542077  0.7607854  0.4981251

