32 
charge = 0 
 Al 
  0.9876516  0.9858138  0.9930882

 Al 
  0.9943159  0.2266521  0.2351134

 Al 
  0.2474296  0.0044527  0.2440659

 Al 
  0.2457651  0.2534986  0.0133384

 Al 
  0.4933159  0.9982711  0.0241189

 Al 
  0.5168841  0.2628026  0.2485149

 Al 
  0.7428989  0.9998849  0.2491733

 Al 
  0.7534776  0.2549515  0.0193060

 Al 
  0.0170746  0.4847644  0.0168296

 Al 
  0.9820838  0.7521063  0.2327150

 Al 
  0.2516905  0.4925041  0.2644040

 Al 
  0.2438060  0.7511262  0.0074662

 Al 
  0.0102087  0.9850688  0.4813598

 Al 
  0.9938976  0.2457539  0.7612791

 Al 
  0.2473133  0.9982191  0.7489753

 Al 
  0.2454656  0.2533414  0.4943518

 Al 
  0.9859834  0.4979927  0.5027325

 Al 
  0.0058289  0.7393161  0.7481672

 Al 
  0.2681043  0.5086258  0.7573821

 Al 
  0.2626640  0.7517153  0.5100973

 Al 
  0.5001621  0.4994567  0.9941166

 Al 
  0.4861232  0.7340008  0.2380043

 Al 
  0.7579848  0.5184842  0.2435560

 Al 
  0.7341728  0.7554688  0.9767586

 Al 
  0.4936723  0.9923321  0.4980187

 Al 
  0.5044750  0.2621467  0.7419076

 Al 
  0.7479357  0.9994963  0.7387072

 Al 
  0.7550530  0.2433320  0.4969940

 Al 
  0.5144040  0.5076729  0.5154126

 Al 
  0.5015259  0.7620328  0.7523563

 Al 
  0.7506980  0.5202564  0.7525395

 Al 
  0.7579365  0.7584563  0.4991510

