32 
charge = 0 
 Al 
  0.9880823  0.9867408  0.9936761

 Al 
  0.9934285  0.2260210  0.2350193

 Al 
  0.2472811  0.0035988  0.2449334

 Al 
  0.2460002  0.2536236  0.0126108

 Al 
  0.4925808  0.9978528  0.0243305

 Al 
  0.5170363  0.2634078  0.2482724

 Al 
  0.7430523  0.9993775  0.2487612

 Al 
  0.7524974  0.2552819  0.0191686

 Al 
  0.0180177  0.4861108  0.0179793

 Al 
  0.9807646  0.7517388  0.2329773

 Al 
  0.2521917  0.4932751  0.2644523

 Al 
  0.2437751  0.7498800  0.0072558

 Al 
  0.0092966  0.9850181  0.4809700

 Al 
  0.9941773  0.2461413  0.7607359

 Al 
  0.2474123  0.9992141  0.7495087

 Al 
  0.2450188  0.2528179  0.4951339

 Al 
  0.9852879  0.4988949  0.5025519

 Al 
  0.0058475  0.7394919  0.7479283

 Al 
  0.2686847  0.5091976  0.7579612

 Al 
  0.2623719  0.7510779  0.5109636

 Al 
  0.5001844  0.4992179  0.9935003

 Al 
  0.4875872  0.7342755  0.2378731

 Al 
  0.7585998  0.5174175  0.2428234

 Al 
  0.7336629  0.7551111  0.9770086

 Al 
  0.4930003  0.9923321  0.4978937

 Al 
  0.5061841  0.2634040  0.7421341

 Al 
  0.7480137  0.9990991  0.7391862

 Al 
  0.7564056  0.2432120  0.4967576

 Al 
  0.5146144  0.5069192  0.5149225

 Al 
  0.5015185  0.7612086  0.7517140

 Al 
  0.7504369  0.5199136  0.7520977

 Al 
  0.7569860  0.7591258  0.4988998

