32 
charge = 0 
 Al 
  0.9890278  0.9887951  0.9948691

 Al 
  0.9916526  0.2249307  0.2351455

 Al 
  0.2470323  0.0016373  0.2468232

 Al 
  0.2468021  0.2536929  0.0109005

 Al 
  0.4910796  0.9971029  0.0243825

 Al 
  0.5170313  0.2646565  0.2479395

 Al 
  0.7433172  0.9981523  0.2478776

 Al 
  0.7503168  0.2559675  0.0183667

 Al 
  0.0197094  0.4892406  0.0201983

 Al 
  0.9782511  0.7509504  0.2336134

 Al 
  0.2532449  0.4950498  0.2644993

 Al 
  0.2437466  0.7472291  0.0067769

 Al 
  0.0072435  0.9850403  0.4804465

 Al 
  0.9947985  0.2470459  0.7594661

 Al 
  0.2476573  0.0014529  0.7507524

 Al 
  0.2441513  0.2516608  0.4969704

 Al 
  0.9840726  0.5007920  0.5020878

 Al 
  0.0058450  0.7399547  0.7474469

 Al 
  0.2695968  0.5102755  0.7590342

 Al 
  0.2615613  0.7495149  0.5125674

 Al 
  0.5002661  0.4987055  0.9924434

 Al 
  0.4909163  0.7349958  0.2378310

 Al 
  0.7596753  0.5149522  0.2413074

 Al 
  0.7328833  0.7543859  0.9780852

 Al 
  0.4916823  0.9925536  0.4975323

 Al 
  0.5098188  0.2657282  0.7427677

 Al 
  0.7482154  0.9984258  0.7402752

 Al 
  0.7592545  0.2430090  0.4962762

 Al 
  0.5149708  0.5053339  0.5135117

 Al 
  0.5013465  0.7595107  0.7503094

 Al 
  0.7500161  0.5187986  0.7512017

 Al 
  0.7548166  0.7604562  0.4982971

