32 
charge = 0 
 Al 
  0.9854450  0.9814415  0.9894547

 Al 
  0.9997686  0.2316754  0.2380810

 Al 
  0.2488342  0.0082805  0.2396268

 Al 
  0.2466388  0.2515878  0.0159287

 Al 
  0.4979296  0.0015841  0.0201970

 Al 
  0.5138359  0.2592137  0.2508502

 Al 
  0.7420932  0.0016262  0.2515927

 Al 
  0.7580937  0.2530308  0.0170462

 Al 
  0.0097334  0.4794070  0.0089550

 Al 
  0.9914880  0.7539020  0.2319204

 Al 
  0.2484964  0.4892394  0.2633682

 Al 
  0.2442676  0.7578387  0.0081122

 Al 
  0.0145884  0.9863794  0.4855440

 Al 
  0.9926811  0.2439124  0.7633050

 Al 
  0.2469308  0.9935053  0.7466314

 Al 
  0.2485681  0.2556878  0.4912640

 Al 
  0.9917120  0.4926130  0.5033785

 Al 
  0.0056557  0.7388285  0.7494951

 Al 
  0.2626603  0.5045691  0.7532313

 Al 
  0.2630055  0.7539441  0.5035543

 Al 
  0.5000891  0.5006188  0.9989901

 Al 
  0.4792758  0.7336642  0.2403124

 Al 
  0.7530543  0.5233380  0.2478169

 Al 
  0.7390179  0.7577075  0.9792399

 Al 
  0.4981387  0.9936464  0.4979927

 Al 
  0.4945089  0.2527647  0.7418148

 Al 
  0.7477947  0.0028254  0.7364190

 Al 
  0.7473590  0.2445300  0.4985471

 Al 
  0.5126256  0.5121281  0.5160896

 Al 
  0.5003787  0.7669101  0.7557497

 Al 
  0.7527796  0.5193580  0.7553339

 Al 
  0.7625489  0.7542411  0.5001559

