32 
charge = 0 
 Al 
  0.9864846  0.9833820  0.9913185

 Al 
  0.9969964  0.2288773  0.2360527

 Al 
  0.2480001  0.0066098  0.2417083

 Al 
  0.2457081  0.2527882  0.0150228

 Al 
  0.4955299  0.9997327  0.0227563

 Al 
  0.5158284  0.2610230  0.2495000

 Al 
  0.7424373  0.0010222  0.2503663

 Al 
  0.7560381  0.2540010  0.0187998

 Al 
  0.0138075  0.4815306  0.0131553

 Al 
  0.9863918  0.7530939  0.2321407

 Al 
  0.2501844  0.4905982  0.2640921

 Al 
  0.2439644  0.7546074  0.0079427

 Al 
  0.0125897  0.9854908  0.4830355

 Al 
  0.9931810  0.2447676  0.7625600

 Al 
  0.2470905  0.9956351  0.7476474

 Al 
  0.2468987  0.2546879  0.4924793

 Al 
  0.9884696  0.4953554  0.5031310

 Al 
  0.0057411  0.7389671  0.7488553

 Al 
  0.2658371  0.5067620  0.7554713

 Al 
  0.2631305  0.7531385  0.5071680

 Al 
  0.5001299  0.5000978  0.9962923

 Al 
  0.4823561  0.7335280  0.2388236

 Al 
  0.7558104  0.5211796  0.2456908

 Al 
  0.7361900  0.7565517  0.9771311

 Al 
  0.4957849  0.9927207  0.4981758

 Al 
  0.4995471  0.2579130  0.7415833

 Al 
  0.7477959  0.0009455  0.7374598

 Al 
  0.7511757  0.2437961  0.4977204

 Al 
  0.5136379  0.5098757  0.5161787

 Al 
  0.5012153  0.7644572  0.7541186

 Al 
  0.7516410  0.5204532  0.7538822

 Al 
  0.7604079  0.7564118  0.4997413

