32 
charge = 0 
 Al 
  0.9868571  0.9841369  0.9919138

 Al 
  0.9960967  0.2280778  0.2356269

 Al 
  0.2477860  0.0059514  0.2424595

 Al 
  0.2456190  0.2530803  0.0145438

 Al 
  0.4947812  0.9992080  0.0233342

 Al 
  0.5162801  0.2616145  0.2491300

 Al 
  0.7425858  0.0007042  0.2499703

 Al 
  0.7552423  0.2543141  0.0191129

 Al 
  0.0149757  0.4824823  0.0144263

 Al 
  0.9848856  0.7527833  0.2322967

 Al 
  0.2506955  0.4911700  0.2642307

 Al 
  0.2438988  0.7534825  0.0078115

 Al 
  0.0118459  0.9853027  0.4823907

 Al 
  0.9933988  0.2450733  0.7621900

 Al 
  0.2471548  0.9964371  0.7480496

 Al 
  0.2464012  0.2542758  0.4930288

 Al 
  0.9875674  0.4962341  0.5030184

 Al 
  0.0057732  0.7390575  0.7486300

 Al 
  0.2666848  0.5074118  0.7561395

 Al 
  0.2630402  0.7527387  0.5082088

 Al 
  0.5001374  0.4998973  0.9955114

 Al 
  0.4835231  0.7336246  0.2384783

 Al 
  0.7565937  0.5203517  0.2449854

 Al 
  0.7354327  0.7561853  0.9768205

 Al 
  0.4950597  0.9925288  0.4981585

 Al 
  0.5011769  0.2594117  0.7416328

 Al 
  0.7478281  0.0004183  0.7378484

 Al 
  0.7524491  0.2436191  0.4974717

 Al 
  0.5139176  0.5091443  0.5160301

 Al 
  0.5013749  0.7636516  0.7535530

 Al 
  0.7513019  0.5205262  0.7534280

 Al 
  0.7596332  0.7571024  0.4995693

