32 
charge = 0 
 Al 
  0.9861257  0.9826791  0.9907121

 Al 
  0.9979073  0.2297399  0.2365984

 Al 
  0.2482451  0.0072162  0.2409868

 Al 
  0.2459061  0.2524405  0.0154176

 Al 
  0.4962985  0.0003007  0.0220459

 Al 
  0.5152728  0.2604277  0.2499097

 Al 
  0.7423011  0.0012809  0.2507661

 Al 
  0.7567781  0.2536842  0.0183493

 Al 
  0.0125489  0.4807015  0.0118249

 Al 
  0.9879857  0.7533847  0.2320232

 Al 
  0.2496522  0.4900859  0.2639077

 Al 
  0.2440448  0.7557052  0.0080404

 Al 
  0.0132914  0.9857297  0.4837718

 Al 
  0.9929855  0.2444743  0.7628719

 Al 
  0.2470323  0.9948814  0.7472786

 Al 
  0.2474222  0.2550629  0.4920016

 Al 
  0.9894547  0.4944656  0.5032263

 Al 
  0.0057089  0.7388991  0.7490743

 Al 
  0.2648891  0.5060752  0.7547646

 Al 
  0.2631565  0.7534701  0.5060517

 Al 
  0.5001213  0.5002846  0.9971313

 Al 
  0.4812645  0.7334971  0.2392419

 Al 
  0.7549626  0.5219494  0.2463950

 Al 
  0.7370378  0.7569266  0.9776348

 Al 
  0.4965373  0.9929731  0.4981548

 Al 
  0.4979036  0.2563128  0.7415957

 Al 
  0.7477798  0.0015222  0.7370935

 Al 
  0.7499084  0.2440028  0.4979815

 Al 
  0.5133298  0.5106133  0.5162343

 Al 
  0.5009962  0.7652678  0.7546706

 Al 
  0.7520024  0.5202366  0.7543500

 Al 
  0.7611467  0.7557052  0.4998936

