32 
charge = 0 
 Al 
  0.9863039  0.9830244  0.9910178

 Al 
  0.9974506  0.2293005  0.2363101

 Al 
  0.2481189  0.0069192  0.2413445

 Al 
  0.2457935  0.2526212  0.0152307

 Al 
  0.4959111  0.0000111  0.0224184

 Al 
  0.5155636  0.2607260  0.2496993

 Al 
  0.7423680  0.0011584  0.2505656

 Al 
  0.7564143  0.2538426  0.0185919

 Al 
  0.0131899  0.4811012  0.0124981

 Al 
  0.9871776  0.7532412  0.2320764

 Al 
  0.2499220  0.4903346  0.2640067

 Al 
  0.2440028  0.7551594  0.0079959

 Al 
  0.0129449  0.9856034  0.4833919

 Al 
  0.9930796  0.2446191  0.7627234

 Al 
  0.2470608  0.9952527  0.7474580

 Al 
  0.2471573  0.2548797  0.4922318

 Al 
  0.9889510  0.4949124  0.5031805

 Al 
  0.0057250  0.7389300  0.7489654

 Al 
  0.2653767  0.5064229  0.7551223

 Al 
  0.2631516  0.7533130  0.5066197

 Al 
  0.5001250  0.5001931  0.9967044

 Al 
  0.4818016  0.7335045  0.2390228

 Al 
  0.7553945  0.5215707  0.2460423

 Al 
  0.7366021  0.7567385  0.9773588

 Al 
  0.4961574  0.9928395  0.4981696

 Al 
  0.4987278  0.2571271  0.7415821

 Al 
  0.7477860  0.0012277  0.7372741

 Al 
  0.7505421  0.2438951  0.4978491

 Al 
  0.5134870  0.5102433  0.5162183

 Al 
  0.5011126  0.7648619  0.7543958

 Al 
  0.7518192  0.5203629  0.7541149

 Al 
  0.7607804  0.7560603  0.4998193

