32 
charge = 0 
 Al 
  0.9847000  0.9802832  0.9878075

 Al 
  0.0021311  0.2345020  0.2407034

 Al 
  0.2497785  0.0093127  0.2381083

 Al 
  0.2481783  0.2502537  0.0159571

 Al 
  0.5001807  0.0034714  0.0170350

 Al 
  0.5114190  0.2576457  0.2522276

 Al 
  0.7420239  0.0017227  0.2526867

 Al 
  0.7593832  0.2521336  0.0147121

 Al 
  0.0056643  0.4785209  0.0049614

 Al 
  0.9965014  0.7544082  0.2321135

 Al 
  0.2468281  0.4885389  0.2622865

 Al 
  0.2447069  0.7603807  0.0078932

 Al 
  0.0160103  0.9875563  0.4883446

 Al 
  0.9925226  0.2432083  0.7634152

 Al 
  0.2468046  0.9920227  0.7459903

 Al 
  0.2502042  0.2561977  0.4907913

 Al 
  0.9950931  0.4901255  0.5035048

 Al 
  0.0056321  0.7388607  0.7499728

 Al 
  0.2592310  0.5024083  0.7510829

 Al 
  0.2624053  0.7542003  0.4999208

 Al 
  0.4999901  0.5009504  0.0016138

 Al 
  0.4771583  0.7343869  0.2420895

 Al 
  0.7502747  0.5247896  0.2496188

 Al 
  0.7420016  0.7587186  0.9823833

 Al 
  0.5003131  0.9947713  0.4975496

 Al 
  0.4899819  0.2476709  0.7424954

 Al 
  0.7479110  0.0047114  0.7357049

 Al 
  0.7441364  0.2454693  0.4993540

 Al 
  0.5115650  0.5141033  0.5155017

 Al 
  0.4992835  0.7689656  0.7570751

 Al 
  0.7537919  0.5173840  0.7566692

 Al 
  0.7641924  0.7523254  0.5004319

