32 
charge = 0 
 Al 
  0.9851294  0.9809180  0.9888038

 Al 
  0.0007153  0.2327533  0.2390278

 Al 
  0.2491832  0.0087360  0.2389906

 Al 
  0.2471746  0.2510853  0.0160289

 Al 
  0.4988020  0.0023019  0.0190461

 Al 
  0.5129499  0.2585912  0.2513774

 Al 
  0.7420338  0.0017091  0.2520234

 Al 
  0.7586629  0.2526855  0.0162009

 Al 
  0.0081729  0.4789503  0.0074080

 Al 
  0.9934112  0.7541248  0.2319489

 Al 
  0.2478590  0.4889090  0.2629944

 Al 
  0.2444186  0.7588758  0.0080726

 Al 
  0.0151861  0.9868002  0.4865885

 Al 
  0.9925833  0.2436327  0.7634127

 Al 
  0.2468826  0.9928791  0.7463517

 Al 
  0.2491956  0.2559329  0.4910116

 Al 
  0.9929929  0.4916403  0.5034367

 Al 
  0.0056396  0.7388248  0.7496943

 Al 
  0.2613720  0.5037424  0.7523996

 Al 
  0.2628224  0.7540901  0.5021657

 Al 
  0.5000594  0.5007636  0.0000050

 Al 
  0.4783761  0.7338783  0.2409670

 Al 
  0.7519912  0.5239592  0.2485360

 Al 
  0.7401490  0.7581110  0.9803475

 Al 
  0.4989901  0.9940634  0.4978491

 Al 
  0.4927367  0.2508094  0.7420301

 Al 
  0.7478281  0.0035493  0.7361145

 Al 
  0.7460707  0.2448641  0.4988565

 Al 
  0.5122246  0.5129103  0.5159027

 Al 
  0.4999814  0.7677380  0.7562831

 Al 
  0.7531842  0.5186860  0.7558549

 Al 
  0.7632209  0.7534825  0.5002710

