32 
charge = 0 
 Al 
  0.9841233  0.9797164  0.9858745

 Al 
  0.0047399  0.2382803  0.2447899

 Al 
  0.2511658  0.0100267  0.2367333

 Al 
  0.2507326  0.2484444  0.0149312

 Al 
  0.5030791  0.0060133  0.0121925

 Al 
  0.5078103  0.2558091  0.2540295

 Al 
  0.7423680  0.0013626  0.2540184

 Al 
  0.7602297  0.2509158  0.0111814

 Al 
  0.0003601  0.4786545  0.9998861

 Al 
  0.0030989  0.7547436  0.2329563

 Al 
  0.2445906  0.4882964  0.2603386

 Al 
  0.2455547  0.7630278  0.0070306

 Al 
  0.0172974  0.9894906  0.4923444

 Al 
  0.9927887  0.2423172  0.7627803

 Al 
  0.2466066  0.9906935  0.7455027

 Al 
  0.2523922  0.2562769  0.4909608

 Al 
  0.9996819  0.4870266  0.5035568

 Al 
  0.0056928  0.7390711  0.7504171

 Al 
  0.2544577  0.4995334  0.7483565

 Al 
  0.2610663  0.7540567  0.4951240

 Al 
  0.4997215  0.5012017  0.0049020

 Al 
  0.4753416  0.7361034  0.2446847

 Al 
  0.7466215  0.5259814  0.2517140

 Al 
  0.7459804  0.7598238  0.9875192

 Al 
  0.5029528  0.9963504  0.4966796

 Al 
  0.4843523  0.2410240  0.7439199

 Al 
  0.7481944  0.0071308  0.7351294

 Al 
  0.7404609  0.2470682  0.5004171

 Al 
  0.5100762  0.5164262  0.5143792

 Al 
  0.4976486  0.7711685  0.7585788

 Al 
  0.7548636  0.5138756  0.7583350

 Al 
  0.7659509  0.7500891  0.5007388

