32 
charge = 0 
 Al 
  0.9848361  0.9804725  0.9881404

 Al 
  0.0016608  0.2339030  0.2401119

 Al 
  0.2495718  0.0091357  0.2383917

 Al 
  0.2478182  0.2505396  0.0160116

 Al 
  0.4997129  0.0030704  0.0177417

 Al 
  0.5119549  0.2579612  0.2519368

 Al 
  0.7420152  0.0017326  0.2524640

 Al 
  0.7591629  0.2523217  0.0152356

 Al 
  0.0065207  0.4786285  0.0057918

 Al 
  0.9954470  0.7543216  0.2320405

 Al 
  0.2471808  0.4886454  0.2625427

 Al 
  0.2446018  0.7598869  0.0079699

 Al 
  0.0157467  0.9872865  0.4877358

 Al 
  0.9925301  0.2433506  0.7634362

 Al 
  0.2468318  0.9922962  0.7461029

 Al 
  0.2498589  0.2561235  0.4908420

 Al 
  0.9943716  0.4906366  0.5034850

 Al 
  0.0056321  0.7388434  0.7498824

 Al 
  0.2599698  0.5028650  0.7515296

 Al 
  0.2625637  0.7541780  0.5006881

 Al 
  0.5000173  0.5008923  0.0010680

 Al 
  0.4775457  0.7341914  0.2416972

 Al 
  0.7508613  0.5245273  0.2492587

 Al 
  0.7413668  0.7585169  0.9816568

 Al 
  0.4998676  0.9945263  0.4976598

 Al 
  0.4909113  0.2487414  0.7423209

 Al 
  0.7478788  0.0043154  0.7358349

 Al 
  0.7447800  0.2452539  0.4991844

 Al 
  0.5117927  0.5137035  0.5156502

 Al 
  0.4995285  0.7685610  0.7568128

 Al 
  0.7535914  0.5178568  0.7563932

 Al 
  0.7638743  0.7527127  0.5003799

