32 
charge = 0 
 Al 
  0.9841852  0.9797362  0.9861801

 Al 
  0.0043426  0.2376429  0.2440622

 Al 
  0.2509232  0.0099512  0.2369165

 Al 
  0.2502747  0.2487463  0.0151837

 Al 
  0.5025952  0.0055826  0.0130526

 Al 
  0.5084427  0.2561012  0.2537288

 Al 
  0.7422739  0.0014554  0.2538018

 Al 
  0.7601505  0.2511274  0.0117989

 Al 
  0.0012413  0.4785407  0.0007227

 Al 
  0.0019937  0.7547114  0.2327657

 Al 
  0.2449668  0.4882889  0.2607074

 Al 
  0.2453876  0.7626343  0.0072237

 Al 
  0.0171229  0.9891354  0.4916539

 Al 
  0.9927058  0.2424694  0.7629461

 Al 
  0.2466450  0.9908730  0.7455609

 Al 
  0.2520197  0.2563103  0.4908767

 Al 
  0.9989072  0.4875340  0.5035568

 Al 
  0.0056755  0.7390253  0.7503564

 Al 
  0.2552720  0.5000186  0.7488033

 Al 
  0.2613324  0.7541099  0.4959247

 Al 
  0.4997810  0.5011707  0.0043674

 Al 
  0.4755767  0.7357569  0.2442354

 Al 
  0.7472303  0.5258329  0.2513799

 Al 
  0.7453171  0.7596604  0.9865947

 Al 
  0.5025296  0.9960831  0.4968455

 Al 
  0.4852767  0.2421303  0.7436414

 Al 
  0.7481375  0.0067336  0.7351988

 Al 
  0.7410376  0.2467687  0.5002376

 Al 
  0.5103349  0.5160574  0.5145859

 Al 
  0.4979308  0.7708418  0.7583412

 Al 
  0.7547089  0.5145253  0.7580615

 Al 
  0.7656799  0.7504418  0.5006881

