32 
charge = 0 
 Al 
  0.9840515  0.9799651  0.9847668

 Al 
  0.0061024  0.2407480  0.2477452

 Al 
  0.2521397  0.0101554  0.2362222

 Al 
  0.2525778  0.2472972  0.0136305

 Al 
  0.5049490  0.0076939  0.0087038

 Al 
  0.5052695  0.2547386  0.2551767

 Al 
  0.7428890  0.0008910  0.2548290

 Al 
  0.7602854  0.2500483  0.0087075

 Al 
  0.9970138  0.4794453  0.9967229

 Al 
  0.0073561  0.7547770  0.2339166

 Al 
  0.2431390  0.4885080  0.2587347

 Al 
  0.2463183  0.7643458  0.0060740

 Al 
  0.0178098  0.9909930  0.4950745

 Al 
  0.9932726  0.2416997  0.7619004

 Al 
  0.2464259  0.9901601  0.7453554

 Al 
  0.2538711  0.2559502  0.4914930

 Al 
  0.0026707  0.4851134  0.5035147

 Al 
  0.0057757  0.7392914  0.7505990

 Al 
  0.2512821  0.4976462  0.7466784

 Al 
  0.2598634  0.7537511  0.4920734

 Al 
  0.4994295  0.5012759  0.0068808

 Al 
  0.4747067  0.7376912  0.2464470

 Al 
  0.7443023  0.5263502  0.2529553

 Al 
  0.7484964  0.7603510  0.9913111

 Al 
  0.5044911  0.9973677  0.4959717

 Al 
  0.4808487  0.2367952  0.7451512

 Al 
  0.7484444  0.0086196  0.7349785

 Al 
  0.7383842  0.2483689  0.5011150

 Al 
  0.5090231  0.5177615  0.5135303

 Al 
  0.4965497  0.7722464  0.7594389

 Al 
  0.7553388  0.5111331  0.7593646

 Al 
  0.7669224  0.7488169  0.5009319

