32 
charge = 0 
 Al 
  0.9842842  0.9807163  0.9838931

 Al 
  0.0070479  0.2429818  0.2505990

 Al 
  0.2530679  0.0100342  0.2360774

 Al 
  0.2543005  0.2463170  0.0119586

 Al 
  0.5066531  0.0092409  0.0053240

 Al 
  0.5028464  0.2538624  0.2561866

 Al 
  0.7436154  0.0003020  0.2555257

 Al 
  0.7599512  0.2491770  0.0063635

 Al 
  0.9941104  0.4806779  0.9939966

 Al 
  0.0111715  0.7546718  0.2351530

 Al 
  0.2418556  0.4889770  0.2569910

 Al 
  0.2472081  0.7652158  0.0048673

 Al 
  0.0180226  0.9925573  0.4976165

 Al 
  0.9939755  0.2410759  0.7607359

 Al 
  0.2461895  0.9899126  0.7453294

 Al 
  0.2552832  0.2553351  0.4922751

 Al 
  0.0053277  0.4834785  0.5034082

 Al 
  0.0058685  0.7395500  0.7506745

 Al 
  0.2484048  0.4959235  0.7452601

 Al 
  0.2584872  0.7533439  0.4894275

 Al 
  0.4990397  0.5012796  0.0085132

 Al 
  0.4745718  0.7395203  0.2480533

 Al 
  0.7422801  0.5263613  0.2540159

 Al 
  0.7506670  0.7606356  0.9950386

 Al 
  0.5057163  0.9982439  0.4952403

 Al 
  0.4778043  0.2330838  0.7464952

 Al 
  0.7487105  0.0098696  0.7350230

 Al 
  0.7367333  0.2497970  0.5017672

 Al 
  0.5079711  0.5188171  0.5127122

 Al 
  0.4955819  0.7728974  0.7601195

 Al 
  0.7555443  0.5083214  0.7602371

 Al 
  0.7677083  0.7478194  0.5011212

