32 
charge = 0 
 Al 
  0.9840515  0.9797758  0.9852953

 Al 
  0.0054700  0.2395352  0.2462663

 Al 
  0.2516546  0.0101245  0.2364326

 Al 
  0.2516596  0.2478541  0.0143347

 Al 
  0.5040307  0.0068660  0.0104500

 Al 
  0.5065343  0.2552522  0.2546161

 Al 
  0.7426006  0.0011447  0.2544354

 Al 
  0.7603089  0.2504839  0.0099376

 Al 
  0.9986436  0.4789874  0.9982600

 Al 
  0.0052695  0.7547795  0.2333981

 Al 
  0.2438493  0.4883669  0.2595589

 Al 
  0.2459185  0.7637407  0.0065875

 Al 
  0.0175907  0.9902294  0.4937231

 Al 
  0.9930016  0.2420103  0.7623806

 Al 
  0.2465224  0.9903903  0.7454124

 Al 
  0.2531372  0.2561519  0.4911910

 Al 
  0.0012066  0.4860415  0.5035444

 Al 
  0.0057312  0.7391750  0.7505210

 Al 
  0.2528452  0.4985743  0.7474902

 Al 
  0.2604908  0.7539194  0.4935610

 Al 
  0.4995879  0.5012475  0.0059279

 Al 
  0.4749616  0.7368620  0.2455770

 Al 
  0.7454334  0.5262116  0.2523551

 Al 
  0.7472724  0.7601158  0.9894065

 Al 
  0.5037560  0.9968714  0.4963331

 Al 
  0.4825541  0.2388595  0.7445164

 Al 
  0.7483157  0.0078994  0.7350292

 Al 
  0.7393731  0.2476994  0.5007710

 Al 
  0.5095515  0.5171254  0.5139560

 Al 
  0.4970880  0.7717576  0.7590293

 Al 
  0.7551322  0.5125254  0.7588647

 Al 
  0.7664596  0.7494221  0.5008366

