32 
charge = 0 
 Al 
  0.9869784  0.9856455  0.9827905

 Al 
  0.0074501  0.2480348  0.2577509

 Al 
  0.2553129  0.0085986  0.2375600

 Al 
  0.2578511  0.2445461  0.0054515

 Al 
  0.5108596  0.0128112  0.9967464

 Al 
  0.4967861  0.2522808  0.2582372

 Al 
  0.7468479  0.9982984  0.2569749

 Al 
  0.7570776  0.2465930  0.0005705

 Al 
  0.9884028  0.4862334  0.9887864

 Al 
  0.0197069  0.7537968  0.2402740

 Al 
  0.2392307  0.4915425  0.2510643

 Al 
  0.2504789  0.7653346  0.0000817

 Al 
  0.0170437  0.9973541  0.5036768

 Al 
  0.9972996  0.2392382  0.7559799

 Al 
  0.2449668  0.9903854  0.7456883

 Al 
  0.2590738  0.2520296  0.4955596

 Al 
  0.0108361  0.4805331  0.5027065

 Al 
  0.0059613  0.7404918  0.7502351

 Al 
  0.2420672  0.4918457  0.7427640

 Al 
  0.2534206  0.7518489  0.4844352

 Al 
  0.4972761  0.5009517  0.0111950

 Al 
  0.4769417  0.7461994  0.2515767

 Al 
  0.7382679  0.5242958  0.2563363

 Al 
  0.7549589  0.7600094  0.0050913

 Al 
  0.5075764  0.9997327  0.4931724

 Al 
  0.4717551  0.2256250  0.7506089

 Al 
  0.7494678  0.0119004  0.7361121

 Al 
  0.7340045  0.2547906  0.5034305

 Al 
  0.5046928  0.5202935  0.5108361

 Al 
  0.4938926  0.7722056  0.7609153

 Al 
  0.7543092  0.5001386  0.7615489

 Al 
  0.7692033  0.7464135  0.5018427

