32 
charge = 0 
 Al 
  0.9857210  0.9835615  0.9829080

 Al 
  0.0076964  0.2465880  0.2555888

 Al 
  0.2546532  0.0092273  0.2367729

 Al 
  0.2569724  0.2449606  0.0078523

 Al 
  0.5095540  0.0117952  0.9993528

 Al 
  0.4986288  0.2526669  0.2577063

 Al 
  0.7455856  0.9989790  0.2565727

 Al 
  0.7583164  0.2474605  0.0023217

 Al 
  0.9898545  0.4840936  0.9900698

 Al 
  0.0172677  0.7541594  0.2383236

 Al 
  0.2399176  0.4905079  0.2531991

 Al 
  0.2492797  0.7656787  0.0018724

 Al 
  0.0176316  0.9957156  0.5018873

 Al 
  0.9959742  0.2398458  0.7577731

 Al 
  0.2454829  0.9900760  0.7455151

 Al 
  0.2578585  0.2533686  0.4943270

 Al 
  0.0093770  0.4812002  0.5030073

 Al 
  0.0059849  0.7401453  0.7504925

 Al 
  0.2438320  0.4930635  0.7433184

 Al 
  0.2552955  0.7523811  0.4856319

 Al 
  0.4979753  0.5011076  0.0106406

 Al 
  0.4756955  0.7437367  0.2506002

 Al 
  0.7392951  0.5253465  0.2556618

 Al 
  0.7538414  0.7604562  0.0018811

 Al 
  0.5072162  0.9994270  0.4938382

 Al 
  0.4732946  0.2275358  0.7492488

 Al 
  0.7492265  0.0115093  0.7356059

 Al 
  0.7346109  0.2529751  0.5029145

 Al 
  0.5058500  0.5200572  0.5113583

 Al 
  0.4942441  0.7728739  0.7608608

 Al 
  0.7550517  0.5028513  0.7613447

 Al 
  0.7688134  0.7466474  0.5015519

