32 
charge = 0 
 Al 
  0.9850243  0.9822942  0.9831592

 Al 
  0.0076370  0.2453616  0.2538340

 Al 
  0.2541025  0.0096047  0.2363707

 Al 
  0.2561086  0.2453802  0.0094971

 Al 
  0.5085293  0.0109215  0.0014616

 Al 
  0.5001139  0.2530395  0.2572125

 Al 
  0.7447688  0.9994864  0.2562262

 Al 
  0.7590651  0.2481016  0.0037399

 Al 
  0.9912207  0.4826816  0.9913135

 Al 
  0.0151997  0.7543896  0.2370279

 Al 
  0.2405487  0.4898507  0.2546767

 Al 
  0.2484568  0.7656911  0.0030815

 Al 
  0.0178989  0.9945238  0.5004072

 Al 
  0.9951314  0.2403037  0.7589760

 Al 
  0.2457923  0.9899324  0.7454173

 Al 
  0.2569254  0.2542139  0.4934929

 Al 
  0.0080503  0.4819031  0.5031867

 Al 
  0.0059601  0.7399102  0.7506126

 Al 
  0.2453690  0.4940547  0.7439112

 Al 
  0.2565665  0.7527585  0.4868249

 Al 
  0.4984209  0.5011967  0.0100106

 Al 
  0.4750631  0.7420635  0.2497475

 Al 
  0.7402567  0.5258886  0.2551049

 Al 
  0.7528179  0.7606368  0.9994060

 Al 
  0.5067880  0.9990743  0.4943505

 Al 
  0.4747488  0.2293315  0.7482179

 Al 
  0.7490384  0.0110304  0.7353176

 Al 
  0.7352458  0.2517264  0.5025061

 Al 
  0.5066593  0.5197206  0.5118162

 Al 
  0.4946463  0.7730855  0.7606814

 Al 
  0.7553834  0.5048772  0.7610353

 Al 
  0.7684595  0.7469680  0.5013737

