32 
charge = 0 
 Al 
  0.9863002  0.9845453  0.9828164

 Al 
  0.0076197  0.2473355  0.2566927

 Al 
  0.2549936  0.0089303  0.2371306

 Al 
  0.2574526  0.2447342  0.0066841

 Al 
  0.5102124  0.0123249  0.9980236

 Al 
  0.4976907  0.2524603  0.2579897

 Al 
  0.7461895  0.9986387  0.2567806

 Al 
  0.7577311  0.2470286  0.0014294

 Al 
  0.9890797  0.4851233  0.9893768

 Al 
  0.0185275  0.7539850  0.2392641

 Al 
  0.2395525  0.4910017  0.2521595

 Al 
  0.2498626  0.7655537  0.0010037

 Al 
  0.0173729  0.9965249  0.5028056

 Al 
  0.9966054  0.2395414  0.7569056

 Al 
  0.2452403  0.9902158  0.7455968

 Al 
  0.2584686  0.2527313  0.4949248

 Al 
  0.0101480  0.4808289  0.5028662

 Al 
  0.0059824  0.7403124  0.7503787

 Al 
  0.2429125  0.4924422  0.7430078

 Al 
  0.2543872  0.7521199  0.4849797

 Al 
  0.4976424  0.5010334  0.0109574

 Al 
  0.4762586  0.7449309  0.2511101

 Al 
  0.7387468  0.5248713  0.2560059

 Al 
  0.7544317  0.7602631  0.0034924

 Al 
  0.5074241  0.9996027  0.4935028

 Al 
  0.4724692  0.2265135  0.7499307

 Al 
  0.7493478  0.0117408  0.7358410

 Al 
  0.7342755  0.2538587  0.5031756

 Al 
  0.5052856  0.5202057  0.5110861

 Al 
  0.4940411  0.7725967  0.7609153

 Al 
  0.7547263  0.5015012  0.7614784

 Al 
  0.7690189  0.7465039  0.5016880

