32 
charge = 0 
 Al 
  0.9848361  0.9819242  0.9832743

 Al 
  0.0075689  0.2449210  0.2532189

 Al 
  0.2539070  0.0097124  0.2362730

 Al 
  0.2557831  0.2455423  0.0100168

 Al 
  0.5081741  0.0106084  0.0021991

 Al 
  0.5006324  0.2531818  0.2570281

 Al 
  0.7445176  0.9996535  0.2560999

 Al 
  0.7592792  0.2483157  0.0042362

 Al 
  0.9917343  0.4822447  0.9917875

 Al 
  0.0144572  0.7544565  0.2366257

 Al 
  0.2407839  0.4896540  0.2551520

 Al 
  0.2481956  0.7656465  0.0034615

 Al 
  0.0179570  0.9941302  0.4998837

 Al 
  0.9948753  0.2404572  0.7593523

 Al 
  0.2458826  0.9899040  0.7453913

 Al 
  0.2566061  0.2544676  0.4932318

 Al 
  0.0075578  0.4821766  0.5032387

 Al 
  0.0059453  0.7398359  0.7506386

 Al 
  0.2459259  0.4944050  0.7441439

 Al 
  0.2569687  0.7528798  0.4872828

 Al 
  0.4985570  0.5012202  0.0097582

 Al 
  0.4749084  0.7415326  0.2494369

 Al 
  0.7406180  0.5260247  0.2549045

 Al 
  0.7524355  0.7606678  0.9985607

 Al 
  0.5066123  0.9989320  0.4945250

 Al 
  0.4752958  0.2300035  0.7478726

 Al 
  0.7489741  0.0108349  0.7352396

 Al 
  0.7354970  0.2513267  0.5023650

 Al 
  0.5069229  0.5195745  0.5119821

 Al 
  0.4948072  0.7731028  0.7605948

 Al 
  0.7554539  0.5055579  0.7609042

 Al 
  0.7683271  0.7471053  0.5013205

