32 
charge = 0 
 Al 
  0.9902876  0.9905512  0.9832620

 Al 
  0.0060938  0.2501609  0.2611900

 Al 
  0.2562720  0.0071494  0.2396589

 Al 
  0.2585305  0.2441439  0.0005309

 Al 
  0.5131244  0.0141255  0.9926538

 Al 
  0.4937911  0.2518353  0.2588275

 Al 
  0.7497005  0.9971338  0.2576048

 Al 
  0.7542250  0.2450052  0.9977229

 Al 
  0.9867333  0.4908581  0.9874895

 Al 
  0.0233021  0.7530494  0.2444211

 Al 
  0.2384226  0.4938481  0.2466029

 Al 
  0.2529528  0.7637778  0.9963430

 Al 
  0.0152505  0.0005309  0.5064081

 Al 
  0.0003069  0.2382048  0.7521793

 Al 
  0.2437206  0.9911725  0.7460881

 Al 
  0.2612037  0.2489976  0.4981041

 Al 
  0.0126281  0.4801161  0.5019789

 Al 
  0.0056878  0.7412430  0.7494901

 Al 
  0.2396317  0.4898743  0.7424558

 Al 
  0.2494777  0.7508106  0.4834030

 Al 
  0.4956859  0.5006039  0.0114066

 Al 
  0.4804131  0.7514306  0.2529429

 Al 
  0.7370873  0.5213541  0.2574563

 Al 
  0.7564316  0.7586320  0.0107705

 Al 
  0.5077125  0.9998206  0.4920474

 Al 
  0.4701475  0.2235768  0.7529107

 Al 
  0.7498911  0.0118769  0.7373694

 Al 
  0.7334959  0.2585466  0.5042943

 Al 
  0.5022425  0.5201413  0.5101245

 Al 
  0.4938270  0.7698456  0.7604327

 Al 
  0.7520160  0.4950980  0.7612593

 Al 
  0.7697069  0.7464878  0.5025729

