32 
charge = 0 
 Al 
  0.9877679  0.9868719  0.9828301

 Al 
  0.0071865  0.2486907  0.2587718

 Al 
  0.2556136  0.0082298  0.2380637

 Al 
  0.2581654  0.2443926  0.0041458

 Al 
  0.5115031  0.0132531  0.9955200

 Al 
  0.4959086  0.2521274  0.2584501

 Al 
  0.7475682  0.9979593  0.2571605

 Al 
  0.7563536  0.2461499  0.9997364

 Al 
  0.9878187  0.4874288  0.9882939

 Al 
  0.0208146  0.7535964  0.2413581

 Al 
  0.2389498  0.4921316  0.2498998

 Al 
  0.2511324  0.7650191  0.9990978

 Al 
  0.0166403  0.9982130  0.5045060

 Al 
  0.9980620  0.2389374  0.7549899

 Al 
  0.2446574  0.9905821  0.7457898

 Al 
  0.2596790  0.2512598  0.4962329

 Al 
  0.0114437  0.4803129  0.5025271

 Al 
  0.0059180  0.7406836  0.7500619

 Al 
  0.2412913  0.4912678  0.7425882

 Al 
  0.2523873  0.7515680  0.4839996

 Al 
  0.4968752  0.5008601  0.0113559

 Al 
  0.4777536  0.7475583  0.2520073

 Al 
  0.7378521  0.5236127  0.2566581

 Al 
  0.7554329  0.7596951  0.0066903

 Al 
  0.5076766  0.9998168  0.4928457

 Al 
  0.4711499  0.2248688  0.7512809

 Al 
  0.7495867  0.0119895  0.7364215

 Al 
  0.7337904  0.2557794  0.5036805

 Al 
  0.5040592  0.5203245  0.5106084

 Al 
  0.4937986  0.7716969  0.7608584

 Al 
  0.7537931  0.4987513  0.7615551

 Al 
  0.7693691  0.7463727  0.5020172

