32 
charge = 0 
 Al 
  0.9908940  0.9914002  0.9834129

 Al 
  0.0057980  0.2504257  0.2616517

 Al 
  0.2563858  0.0069068  0.2400364

 Al 
  0.2585219  0.2441154  0.9997451

 Al 
  0.5134523  0.0142530  0.9921192

 Al 
  0.4933790  0.2517920  0.2588746

 Al 
  0.7501918  0.9969766  0.2576927

 Al 
  0.7537449  0.2447701  0.9973293

 Al 
  0.9865799  0.4916267  0.9874041

 Al 
  0.0237513  0.7529330  0.2450943

 Al 
  0.2383483  0.4942354  0.2458678

 Al 
  0.2533501  0.7634461  0.9957403

 Al 
  0.0149003  0.0010309  0.5067571

 Al 
  0.0008168  0.2380649  0.7515556

 Al 
  0.2435040  0.9913036  0.7461537

 Al 
  0.2615093  0.2484815  0.4985112

 Al 
  0.0128063  0.4801408  0.5018502

 Al 
  0.0056161  0.7413705  0.7493515

 Al 
  0.2393483  0.4896032  0.7424868

 Al 
  0.2488379  0.7506497  0.4833746

 Al 
  0.4954136  0.5005482  0.0113534

 Al 
  0.4810628  0.7522944  0.2531075

 Al 
  0.7369821  0.5207972  0.2576172

 Al 
  0.7566061  0.7583696  0.0116083

 Al 
  0.5076853  0.9997847  0.4918940

 Al 
  0.4700423  0.2234283  0.7532214

 Al 
  0.7499542  0.0117927  0.7375910

 Al 
  0.7334761  0.2591518  0.5044156

 Al 
  0.5018291  0.5200584  0.5100403

 Al 
  0.4938815  0.7693679  0.7602940

 Al 
  0.7515692  0.4943295  0.7611430

 Al 
  0.7697602  0.7465484  0.5027065

