32 
charge = 0 
 Al 
  0.9986288  0.0015457  0.9863027

 Al 
  0.0015408  0.2523551  0.2655376

 Al 
  0.2569959  0.0042510  0.2446339

 Al 
  0.2566494  0.2441290  0.9913841

 Al 
  0.5165450  0.0142047  0.9880055

 Al 
  0.4896540  0.2515767  0.2586766

 Al 
  0.7562670  0.9958690  0.2586258

 Al 
  0.7483565  0.2425462  0.9937689

 Al 
  0.9862569  0.5004690  0.9880253

 Al 
  0.0268712  0.7518662  0.2523365

 Al 
  0.2382506  0.4986065  0.2373509

 Al 
  0.2576122  0.7586741  0.9891738

 Al 
  0.0100168  0.0064527  0.5093040

 Al 
  0.0066742  0.2370885  0.7444990

 Al 
  0.2411019  0.9926254  0.7468133

 Al 
  0.2643161  0.2424335  0.5028315

 Al 
  0.0134053  0.4817385  0.5003069

 Al 
  0.0044218  0.7429558  0.7476276

 Al 
  0.2375786  0.4872692  0.7439062

 Al 
  0.2419187  0.7489716  0.4851047

 Al 
  0.4922331  0.5000062  0.0095676

 Al 
  0.4895822  0.7621912  0.2543203

 Al 
  0.7368558  0.5133558  0.2592656

 Al 
  0.7579291  0.7550641  0.0200287

 Al 
  0.5068734  0.9988268  0.4907443

 Al 
  0.4712192  0.2243664  0.7555158

 Al 
  0.7506584  0.0098176  0.7402814

 Al 
  0.7339822  0.2657047  0.5055245

 Al 
  0.4968269  0.5183580  0.5094203

 Al 
  0.4954322  0.7626962  0.7577694

 Al 
  0.7454779  0.4862643  0.7588919

 Al 
  0.7698691  0.7477204  0.5044552

