32 
charge = 0 
 Al 
  0.0003577  0.0036916  0.9871566

 Al 
  0.0005223  0.2525420  0.2660561

 Al 
  0.2569662  0.0037572  0.2456029

 Al 
  0.2558970  0.2441773  0.9898458

 Al 
  0.5170214  0.0138520  0.9875736

 Al 
  0.4890760  0.2515754  0.2584798

 Al 
  0.7576209  0.9958170  0.2588127

 Al 
  0.7473046  0.2422034  0.9932243

 Al 
  0.9864400  0.5022784  0.9884436

 Al 
  0.0270841  0.7517252  0.2536731

 Al 
  0.2383743  0.4994666  0.2355861

 Al 
  0.2584030  0.7575207  0.9879202

 Al 
  0.0088312  0.0075009  0.5095169

 Al 
  0.0078375  0.2370600  0.7430857

 Al 
  0.2406713  0.9928246  0.7469172

 Al 
  0.2647344  0.2411774  0.5036137

 Al 
  0.0132654  0.4823288  0.4999864

 Al 
  0.0040976  0.7433134  0.7472662

 Al 
  0.2374845  0.4869536  0.7443914

 Al 
  0.2406403  0.7486647  0.4858955

 Al 
  0.4915908  0.4999109  0.0089686

 Al 
  0.4915499  0.7641961  0.2544515

 Al 
  0.7370204  0.5116071  0.2595701

 Al 
  0.7581023  0.7543488  0.0215435

 Al 
  0.5066408  0.9985483  0.4906713

 Al 
  0.4719729  0.2250804  0.7556965

 Al 
  0.7508057  0.0092174  0.7408594

 Al 
  0.7342038  0.2669175  0.5056891

 Al 
  0.4957242  0.5178617  0.5093325

 Al 
  0.4959495  0.7610923  0.7570430

 Al 
  0.7440399  0.4847594  0.7582706

 Al 
  0.7697663  0.7480310  0.5048587

