32 
charge = 0 
 Al 
  0.9977650  0.0004604  0.9859054

 Al 
  0.0020420  0.2522350  0.2652369

 Al 
  0.2569898  0.0045109  0.2441426

 Al 
  0.2569836  0.2441080  0.9921947

 Al 
  0.5162789  0.0143359  0.9882790

 Al 
  0.4899720  0.2515816  0.2587545

 Al 
  0.7555925  0.9959222  0.2585305

 Al 
  0.7489023  0.2427380  0.9940696

 Al 
  0.9861925  0.4995458  0.9878471

 Al 
  0.0267054  0.7519504  0.2516323

 Al 
  0.2382060  0.4981622  0.2382493

 Al 
  0.2571964  0.7592409  0.9898260

 Al 
  0.0105960  0.0059094  0.5091530

 Al 
  0.0060727  0.2371306  0.7452242

 Al 
  0.2413333  0.9925115  0.7467563

 Al 
  0.2640810  0.2430721  0.5024170

 Al 
  0.0134449  0.4814725  0.5004715

 Al 
  0.0045765  0.7427776  0.7478120

 Al 
  0.2376578  0.4874524  0.7436810

 Al 
  0.2425932  0.7491325  0.4847607

 Al 
  0.4925635  0.5000569  0.0098436

 Al 
  0.4886095  0.7611641  0.2542399

 Al 
  0.7367940  0.5142159  0.2591060

 Al 
  0.7578313  0.7554255  0.0192317

 Al 
  0.5069860  0.9989617  0.4908061

 Al 
  0.4709049  0.2240694  0.7553834

 Al 
  0.7505841  0.0100985  0.7399906

 Al 
  0.7338820  0.2650648  0.5054317

 Al 
  0.4973764  0.5185919  0.5094674

 Al 
  0.4951970  0.7634832  0.7581097

 Al 
  0.7461871  0.4870514  0.7591901

 Al 
  0.7699025  0.7475694  0.5042560

