32 
charge = 0 
 Al 
  0.9944421  0.9961834  0.9845416

 Al 
  0.0039243  0.2515767  0.2638038

 Al 
  0.2568313  0.0055938  0.2421984

 Al 
  0.2580033  0.2440622  0.9955819

 Al 
  0.5150834  0.0145636  0.9897208

 Al 
  0.4913928  0.2516361  0.2589364

 Al 
  0.7530011  0.9962848  0.2581506

 Al 
  0.7511237  0.2435993  0.9954272

 Al 
  0.9861430  0.4958616  0.9873793

 Al 
  0.0256782  0.7523551  0.2486907

 Al 
  0.2381491  0.4963541  0.2418098

 Al 
  0.2554651  0.7613546  0.9925090

 Al 
  0.0127469  0.0036904  0.5082904

 Al 
  0.0036397  0.2374462  0.7481474

 Al 
  0.2423160  0.9919930  0.7464965

 Al 
  0.2630093  0.2456079  0.5006695

 Al 
  0.0133830  0.4806334  0.5011225

 Al 
  0.0051247  0.7421006  0.7485459

 Al 
  0.2382023  0.4883211  0.7429496

 Al 
  0.2454099  0.7498069  0.4837619

 Al 
  0.4938939  0.5002698  0.0107420

 Al 
  0.4849166  0.7570479  0.2538216

 Al 
  0.7367061  0.5174583  0.2584451

 Al 
  0.7573610  0.7568375  0.0158767

 Al 
  0.5073833  0.9994282  0.4911972

 Al 
  0.4700918  0.2233281  0.7546050

 Al 
  0.7502933  0.0110551  0.7388520

 Al 
  0.7335800  0.2623967  0.5050084

 Al 
  0.4995000  0.5193988  0.5096839

 Al 
  0.4944260  0.7664200  0.7592879

 Al 
  0.7488515  0.4903111  0.7602458

 Al 
  0.7699272  0.7470199  0.5034986

