32 
charge = 0 
 Al 
  0.0020568  0.0057633  0.9880699

 Al 
  0.9995087  0.2526583  0.2664596

 Al 
  0.2568808  0.0033080  0.2465311

 Al 
  0.2550530  0.2442342  0.9884461

 Al 
  0.5174125  0.0133855  0.9872989

 Al 
  0.4885785  0.2515878  0.2582360

 Al 
  0.7589612  0.9958368  0.2589946

 Al 
  0.7463257  0.2419200  0.9927640

 Al 
  0.9866863  0.5040072  0.9889275

 Al 
  0.0271323  0.7516262  0.2548871

 Al 
  0.2385402  0.5002698  0.2338919

 Al 
  0.2591245  0.7563648  0.9867568

 Al 
  0.0076308  0.0084773  0.5096121

 Al 
  0.0089216  0.2371058  0.7417504

 Al 
  0.2403000  0.9929793  0.7470001

 Al 
  0.2650772  0.2399745  0.5043154

 Al 
  0.0130538  0.4829860  0.4996807

 Al 
  0.0037572  0.7436699  0.7469259

 Al 
  0.2374759  0.4867123  0.7449136

 Al 
  0.2394844  0.7483825  0.4868088

 Al 
  0.4909918  0.4998218  0.0083177

 Al 
  0.4935115  0.7660970  0.2545419

 Al 
  0.7372333  0.5098547  0.2598522

 Al 
  0.7582434  0.7536570  0.0229271

 Al 
  0.5064069  0.9982649  0.4906737

 Al 
  0.4728801  0.2259356  0.7557633

 Al 
  0.7509529  0.0085788  0.7414212

 Al 
  0.7344488  0.2680164  0.5058227

 Al 
  0.4946315  0.5173370  0.5092458

 Al 
  0.4965187  0.7594760  0.7562707

 Al 
  0.7426043  0.4833696  0.7576358

 Al 
  0.7696166  0.7483417  0.5052596

