32 
charge = 0 
 Al 
  0.0044812  0.0086592  0.9895191

 Al 
  0.9980409  0.2527103  0.2668408

 Al 
  0.2566544  0.0027325  0.2478145

 Al 
  0.2536582  0.2443295  0.9866566

 Al 
  0.5178234  0.0124895  0.9871702

 Al 
  0.4879907  0.2516249  0.2577917

 Al 
  0.7609017  0.9960027  0.2592545

 Al 
  0.7450262  0.2416242  0.9922442

 Al 
  0.9871442  0.5063908  0.9897394

 Al 
  0.0269083  0.7515593  0.2564366

 Al 
  0.2388632  0.5013415  0.2315517

 Al 
  0.2600527  0.7546767  0.9852186

 Al 
  0.0058438  0.0097730  0.5095354

 Al 
  0.0103547  0.2373249  0.7399411

 Al 
  0.2398755  0.9931229  0.7470831

 Al 
  0.2654386  0.2383162  0.5051866

 Al 
  0.0126219  0.4840651  0.4992637

 Al 
  0.0032263  0.7441946  0.7464791

 Al 
  0.2376033  0.4864957  0.7457316

 Al 
  0.2380315  0.7480137  0.4883694

 Al 
  0.4902035  0.4997017  0.0072732

 Al 
  0.4963640  0.7686810  0.2546074

 Al 
  0.7376182  0.5072793  0.2602186

 Al 
  0.7584043  0.7526929  0.0247191

 Al 
  0.5060727  0.9978491  0.4908222

 Al 
  0.4744876  0.2274293  0.7556594

 Al 
  0.7511683  0.0075751  0.7422194

 Al 
  0.7348374  0.2693976  0.5059589

 Al 
  0.4930424  0.5165153  0.5091035

 Al 
  0.4974506  0.7570937  0.7550530

 Al 
  0.7405116  0.4815517  0.7566940

 Al 
  0.7693023  0.7487872  0.5058450

