32 
charge = 0 
 Al 
  0.0052460  0.0095577  0.9900166

 Al 
  0.9975731  0.2526979  0.2669101

 Al 
  0.2565541  0.0025679  0.2482105

 Al 
  0.2531694  0.2443629  0.9861467

 Al 
  0.5179100  0.0121442  0.9871974

 Al 
  0.4878372  0.2516422  0.2576246

 Al 
  0.7615229  0.9960930  0.2593362

 Al 
  0.7446438  0.2415598  0.9921155

 Al 
  0.9873137  0.5071209  0.9900252

 Al 
  0.0267573  0.7515593  0.2568784

 Al 
  0.2389894  0.5016608  0.2308339

 Al 
  0.2603188  0.7541347  0.9847644

 Al 
  0.0052596  0.0101542  0.5094550

 Al 
  0.0107742  0.2374375  0.7393953

 Al 
  0.2397728  0.9931451  0.7470992

 Al 
  0.2655190  0.2378088  0.5054255

 Al 
  0.0124524  0.4844463  0.4991374

 Al 
  0.0030444  0.7443654  0.7463504

 Al 
  0.2376788  0.4864623  0.7460064

 Al 
  0.2376269  0.7479060  0.4889312

 Al 
  0.4899757  0.4996634  0.0069130

 Al 
  0.4972811  0.7694619  0.2546124

 Al 
  0.7377593  0.5064465  0.2603237

 Al 
  0.7584451  0.7523947  0.0252376

 Al 
  0.5059688  0.9977155  0.4909113

 Al 
  0.4750804  0.2279726  0.7555752

 Al 
  0.7512388  0.0072348  0.7424719

 Al 
  0.7349686  0.2697812  0.5059861

 Al 
  0.4925301  0.5162343  0.5090503

 Al 
  0.4977786  0.7563190  0.7546371

 Al 
  0.7398396  0.4810220  0.7563895

 Al 
  0.7691736  0.7489270  0.5060331

