32 
charge = 0 
 Al 
  0.0136181  0.0188592  0.9976202

 Al 
  0.9923605  0.2516843  0.2651651

 Al 
  0.2540765  0.0014653  0.2522920

 Al 
  0.2457391  0.2450832  0.9828796

 Al 
  0.5165982  0.0051408  0.9903408

 Al 
  0.4875662  0.2521360  0.2543550

 Al 
  0.7688877  0.9989840  0.2602619

 Al 
  0.7417430  0.2424434  0.9924150

 Al 
  0.9901540  0.5142914  0.9943146

 Al 
  0.0212279  0.7525816  0.2597285

 Al 
  0.2416044  0.5044169  0.2240570

 Al 
  0.2620031  0.7477650  0.9809576

 Al 
  0.9976957  0.0129857  0.5059663

 Al 
  0.0135105  0.2410326  0.7346010

 Al 
  0.2405017  0.9923246  0.7467687

 Al 
  0.2646193  0.2330194  0.5063215

 Al 
  0.0091443  0.4907208  0.4980038

 Al 
  0.0001869  0.7466289  0.7458406

 Al 
  0.2399745  0.4879041  0.7496374

 Al 
  0.2358670  0.7470422  0.4985397

 Al 
  0.4888397  0.4991634  0.0013551

 Al 
  0.5084637  0.7764022  0.2540147

 Al 
  0.7399993  0.4959569  0.2608410

 Al 
  0.7585280  0.7493255  0.0287610

 Al 
  0.5051693  0.9963145  0.4942886

 Al 
  0.4857767  0.2371318  0.7524528

 Al 
  0.7522709  0.0021633  0.7455906

 Al 
  0.7367742  0.2710819  0.5055294

 Al 
  0.4859054  0.5118398  0.5073981

 Al 
  0.5032536  0.7464717  0.7484407

 Al 
  0.7319341  0.4773897  0.7530098

 Al 
  0.7660079  0.7502463  0.5082521

