32 
charge = 0 
 Al 
  0.0105168  0.0155450  0.9941921

 Al 
  0.9943023  0.2522437  0.2665029

 Al 
  0.2553698  0.0017078  0.2508118

 Al 
  0.2490149  0.2446859  0.9835021

 Al 
  0.5177355  0.0086369  0.9884474

 Al 
  0.4872828  0.2518675  0.2559836

 Al 
  0.7659992  0.9973887  0.2599203

 Al 
  0.7424707  0.2416700  0.9918333

 Al 
  0.9888545  0.5118435  0.9924323

 Al 
  0.0243429  0.7519256  0.2591592

 Al 
  0.2402802  0.5035704  0.2262524

 Al 
  0.2617024  0.7502413  0.9820900

 Al 
  0.0008329  0.0123113  0.5079526

 Al 
  0.0130352  0.2390265  0.7360688

 Al 
  0.2396886  0.9929137  0.7470261

 Al 
  0.2654572  0.2345787  0.5064564

 Al 
  0.0107581  0.4877865  0.4983615

 Al 
  0.0015111  0.7456611  0.7457415

 Al 
  0.2387431  0.4868633  0.7481474

 Al 
  0.2357953  0.7472836  0.4940300

 Al 
  0.4888446  0.4993899  0.0038748

 Al 
  0.5039627  0.7742575  0.2543995

 Al 
  0.7389993  0.5002537  0.2608472

 Al 
  0.7585899  0.7504171  0.0280456

 Al 
  0.5053487  0.9968108  0.4923395

 Al 
  0.4806544  0.2328746  0.7541743

 Al 
  0.7518081  0.0044292  0.7442899

 Al 
  0.7360131  0.2714371  0.5059106

 Al 
  0.4886924  0.5138855  0.5083758

 Al 
  0.5006782  0.7505322  0.7511881

 Al 
  0.7350131  0.4781286  0.7542523

 Al 
  0.7677033  0.7498317  0.5073907

