32 
charge = 0 
 Al 
  0.0121454  0.0173110  0.9958641

 Al 
  0.9932800  0.2519714  0.2659423

 Al 
  0.2547659  0.0015544  0.2515878

 Al 
  0.2473900  0.2448579  0.9830664

 Al 
  0.5172764  0.0069873  0.9893050

 Al 
  0.4873533  0.2519912  0.2552188

 Al 
  0.7674843  0.9981189  0.2601035

 Al 
  0.7420202  0.2419831  0.9920412

 Al 
  0.9894881  0.5131677  0.9933642

 Al 
  0.0229234  0.7522165  0.2595441

 Al 
  0.2409002  0.5040444  0.2250297

 Al 
  0.2619227  0.7489629  0.9814477

 Al 
  0.9992562  0.0127407  0.5070430

 Al 
  0.0134003  0.2399374  0.7352396

 Al 
  0.2399980  0.9926588  0.7469172

 Al 
  0.2651255  0.2337137  0.5064786

 Al 
  0.0099884  0.4891961  0.4981622

 Al 
  0.0008750  0.7461376  0.7457267

 Al 
  0.2393174  0.4873063  0.7489048

 Al 
  0.2356901  0.7471425  0.4962044

 Al 
  0.4887481  0.4992835  0.0026509

 Al 
  0.5062435  0.7754666  0.2542275

 Al 
  0.7394943  0.4980892  0.2608893

 Al 
  0.7585763  0.7498366  0.0285431

 Al 
  0.5052262  0.9965447  0.4932132

 Al 
  0.4831085  0.2349376  0.7533773

 Al 
  0.7520333  0.0033241  0.7449297

 Al 
  0.7363942  0.2714309  0.5057534

 Al 
  0.4873088  0.5129115  0.5079551

 Al 
  0.5019133  0.7484914  0.7498379

 Al 
  0.7334253  0.4776137  0.7535951

 Al 
  0.7669286  0.7500693  0.5078375

