32 
charge = 0 
 Al 
  0.0110787  0.0161589  0.9947416

 Al 
  0.9939496  0.2521558  0.2663395

 Al 
  0.2551780  0.0016484  0.2510792

 Al 
  0.2484753  0.2447391  0.9833276

 Al 
  0.5176068  0.0081085  0.9887122

 Al 
  0.4872902  0.2519058  0.2557386

 Al 
  0.7665041  0.9976177  0.2599834

 Al 
  0.7422999  0.2417578  0.9918853

 Al 
  0.9890624  0.5123088  0.9927405

 Al 
  0.0238998  0.7520148  0.2593114

 Al 
  0.2404782  0.5037412  0.2258168

 Al 
  0.2617915  0.7498057  0.9818573

 Al 
  0.0003044  0.0124759  0.5076692

 Al 
  0.0131850  0.2393099  0.7357693

 Al 
  0.2397703  0.9928382  0.7469952

 Al 
  0.2653656  0.2342706  0.5064848

 Al 
  0.0105094  0.4882456  0.4982909

 Al 
  0.0013044  0.7458195  0.7457230

 Al 
  0.2389251  0.4869932  0.7484023

 Al 
  0.2357272  0.7472316  0.4947379

 Al 
  0.4887914  0.4993552  0.0034738

 Al 
  0.5047324  0.7746918  0.2543463

 Al 
  0.7391627  0.4995273  0.2608707

 Al 
  0.7585887  0.7502153  0.0282424

 Al 
  0.5053017  0.9967180  0.4926093

 Al 
  0.4814502  0.2335491  0.7539231

 Al 
  0.7518811  0.0040666  0.7445027

 Al 
  0.7361405  0.2714729  0.5058660

 Al 
  0.4882320  0.5135699  0.5082484

 Al 
  0.5010792  0.7498478  0.7507425

 Al 
  0.7344723  0.4779244  0.7540246

 Al 
  0.7674595  0.7499171  0.5075429

