32 
charge = 0 
 Al 
  0.0171180  0.0221722  0.0034677

 Al 
  0.9903111  0.2510284  0.2614846

 Al 
  0.2515470  0.0014356  0.2541335

 Al 
  0.2408111  0.2463034  0.9836246

 Al 
  0.5131330  0.9983553  0.9943419

 Al 
  0.4890364  0.2526595  0.2510594

 Al 
  0.7725026  0.0023897  0.2604611

 Al 
  0.7418890  0.2446797  0.9945399

 Al 
  0.9923519  0.5165314  0.9973083

 Al 
  0.0145104  0.7540728  0.2593424

 Al 
  0.2442874  0.5050369  0.2227192

 Al 
  0.2614586  0.7446797  0.9802906

 Al 
  0.9930783  0.0126776  0.5019207

 Al 
  0.0122432  0.2455064  0.7337100

 Al 
  0.2432516  0.9909584  0.7461561

 Al 
  0.2619462  0.2320034  0.5048302

 Al 
  0.0061482  0.4961227  0.4977241

 Al 
  0.9976944  0.7482810  0.7471103

 Al 
  0.2423927  0.4906131  0.7516200

 Al 
  0.2379684  0.7469729  0.5065083

 Al 
  0.4903631  0.4986461  0.9969395

 Al 
  0.5149572  0.7776620  0.2532573

 Al 
  0.7415858  0.4895810  0.2600589

 Al 
  0.7581741  0.7481610  0.0276583

 Al 
  0.5054069  0.9958307  0.4988503

 Al 
  0.4950733  0.2444669  0.7490075

 Al 
  0.7531001  0.9982575  0.7479852

 Al 
  0.7379536  0.2678679  0.5044837

 Al 
  0.4813772  0.5077669  0.5045951

 Al 
  0.5080145  0.7403903  0.7439607

 Al 
  0.7281422  0.4785233  0.7516064

 Al 
  0.7621714  0.7503626  0.5092458

