32 
charge = 0 
 Al 
  0.0140760  0.0193283  0.9982278

 Al 
  0.9920771  0.2515903  0.2648569

 Al 
  0.2538278  0.0014479  0.2525147

 Al 
  0.2451846  0.2451735  0.9828672

 Al 
  0.5163210  0.0044787  0.9907232

 Al 
  0.4876677  0.2521892  0.2540431

 Al 
  0.7693369  0.9993033  0.2603077

 Al 
  0.7416873  0.2426291  0.9925759

 Al 
  0.9903829  0.5146243  0.9946376

 Al 
  0.0206017  0.7527202  0.2597520

 Al 
  0.2418606  0.5045208  0.2237884

 Al 
  0.2619994  0.7473826  0.9808252

 Al 
  0.9971771  0.0130278  0.5055715

 Al 
  0.0134907  0.2414410  0.7344278

 Al 
  0.2407133  0.9921959  0.7467106

 Al 
  0.2644102  0.2328251  0.5062299

 Al 
  0.0088461  0.4912579  0.4979580

 Al 
  0.9999431  0.7467972  0.7459111

 Al 
  0.2402121  0.4881392  0.7498762

 Al 
  0.2359871  0.7470175  0.4993552

 Al 
  0.4889152  0.4991189  0.0009047

 Al 
  0.5091963  0.7766571  0.2539367

 Al 
  0.7401713  0.4952478  0.2608027

 Al 
  0.7585033  0.7491696  0.0287721

 Al 
  0.5051643  0.9962452  0.4946946

 Al 
  0.4867160  0.2378929  0.7521175

 Al 
  0.7523538  0.0017623  0.7458208

 Al 
  0.7369016  0.2708888  0.5054391

 Al 
  0.4854277  0.5114561  0.5071766

 Al 
  0.5037275  0.7457985  0.7479630

 Al 
  0.7314588  0.4773798  0.7528291

 Al 
  0.7656638  0.7502921  0.5083832

