32 
charge = 0 
 Al 
  0.0184434  0.0229642  0.0075318

 Al 
  0.9898000  0.2511386  0.2580627

 Al 
  0.2497191  0.0014764  0.2551569

 Al 
  0.2380229  0.2477328  0.9850898

 Al 
  0.5097037  0.9931786  0.9973801

 Al 
  0.4905970  0.2529578  0.2483330

 Al 
  0.7739951  0.0051557  0.2601554

 Al 
  0.7427603  0.2467081  0.9966697

 Al 
  0.9938790  0.5169930  0.9993354

 Al 
  0.0090478  0.7552077  0.2584934

 Al 
  0.2464630  0.5051000  0.2233194

 Al 
  0.2605131  0.7432664  0.9805294

 Al 
  0.9903334  0.0116937  0.4990632

 Al 
  0.0100342  0.2492872  0.7339030

 Al 
  0.2460348  0.9899844  0.7457329

 Al 
  0.2592322  0.2323449  0.5031162

 Al 
  0.0038723  0.5002376  0.4976858

 Al 
  0.9957106  0.7495446  0.7487785

 Al 
  0.2442070  0.4929818  0.7525679

 Al 
  0.2404646  0.7471264  0.5121949

 Al 
  0.4924187  0.4981288  0.9937664

 Al 
  0.5189322  0.7771224  0.2528699

 Al 
  0.7426303  0.4856208  0.2589600

 Al 
  0.7577843  0.7477105  0.0253676

 Al 
  0.5058945  0.9956995  0.5028625

 Al 
  0.5017809  0.2494926  0.7463777

 Al 
  0.7537436  0.9954482  0.7501114

 Al 
  0.7387790  0.2639882  0.5035926

 Al 
  0.4782214  0.5042968  0.5016101

 Al 
  0.5115873  0.7365811  0.7409646

 Al 
  0.7266447  0.4808227  0.7508725

 Al 
  0.7587508  0.7500099  0.5095478

