32 
charge = 0 
 Al 
  0.0187305  0.0225484  0.0105193

 Al 
  0.9900648  0.2517833  0.2549886

 Al 
  0.2484060  0.0014529  0.2558475

 Al 
  0.2364388  0.2492624  0.9867148

 Al 
  0.5064786  0.9890971  0.9997178

 Al 
  0.4920462  0.2530395  0.2459544

 Al 
  0.7742896  0.0074464  0.2594921

 Al 
  0.7438518  0.2484506  0.9986065

 Al 
  0.9950101  0.5167083  0.0008910

 Al 
  0.0044998  0.7560170  0.2575788

 Al 
  0.2483095  0.5050035  0.2247166

 Al 
  0.2594859  0.7426600  0.9811569

 Al 
  0.9886020  0.0105354  0.4971437

 Al 
  0.0075479  0.2525209  0.7344822

 Al 
  0.2486486  0.9893817  0.7455002

 Al 
  0.2566432  0.2332595  0.5014752

 Al 
  0.0019987  0.5035951  0.4977291

 Al 
  0.9940201  0.7506200  0.7505297

 Al 
  0.2456364  0.4949780  0.7529714

 Al 
  0.2428902  0.7473689  0.5165165

 Al 
  0.4945498  0.4976214  0.9913853

 Al 
  0.5216425  0.7758069  0.2528130

 Al 
  0.7434038  0.4829650  0.2577546

 Al 
  0.7574192  0.7475472  0.0226610

 Al 
  0.5064291  0.9957069  0.5064106

 Al 
  0.5068425  0.2530951  0.7442800

 Al 
  0.7542832  0.9932776  0.7521534

 Al 
  0.7394671  0.2601010  0.5028736

 Al 
  0.4758391  0.5012103  0.4985929

 Al 
  0.5143669  0.7339897  0.7387728

 Al 
  0.7264826  0.4835021  0.7502933

 Al 
  0.7556730  0.7494480  0.5094760

