32 
charge = 0 
 Al 
  0.0179051  0.0227365  0.0055257

 Al 
  0.9899498  0.2510024  0.2598423

 Al 
  0.2506200  0.0014591  0.2546693

 Al 
  0.2393223  0.2469544  0.9842731

 Al 
  0.5115081  0.9957787  0.9958628

 Al 
  0.4897753  0.2528266  0.2497327

 Al 
  0.7733813  0.0037498  0.2603683

 Al 
  0.7422541  0.2456636  0.9955547

 Al 
  0.9931253  0.5168729  0.9983318

 Al 
  0.0118261  0.7546458  0.2589637

 Al 
  0.2453530  0.5050988  0.2228627

 Al 
  0.2610353  0.7438889  0.9803388

 Al 
  0.9916390  0.0122531  0.5004554

 Al 
  0.0112655  0.2473491  0.7337322

 Al 
  0.2445683  0.9904547  0.7459346

 Al 
  0.2606653  0.2320652  0.5040270

 Al 
  0.0050220  0.4981610  0.4976907

 Al 
  0.9967229  0.7489023  0.7478689

 Al 
  0.2432986  0.4917677  0.7521496

 Al 
  0.2391330  0.7470299  0.5093696

 Al 
  0.4912999  0.4984035  0.9953418

 Al 
  0.5170152  0.7775370  0.2530320

 Al 
  0.7421180  0.4875303  0.2595651

 Al 
  0.7579897  0.7479011  0.0266633

 Al 
  0.5056222  0.9957453  0.5007896

 Al 
  0.4984493  0.2470261  0.7477006

 Al 
  0.7534169  0.9968492  0.7489939

 Al 
  0.7383644  0.2660747  0.5040444

 Al 
  0.4797857  0.5060900  0.5032102

 Al 
  0.5097978  0.7384226  0.7424348

 Al 
  0.7272449  0.4795282  0.7512264

 Al 
  0.7605267  0.7502327  0.5094451

