32 
charge = 0 
 Al 
  0.0176687  0.0225843  0.0048413

 Al 
  0.9900475  0.2509950  0.2604079

 Al 
  0.2509282  0.0014504  0.2544948

 Al 
  0.2398012  0.2467229  0.9840367

 Al 
  0.5120724  0.9966462  0.9953517

 Al 
  0.4895178  0.2527734  0.2501844

 Al 
  0.7731152  0.0032894  0.2604104

 Al 
  0.7421155  0.2453257  0.9952032

 Al 
  0.9928679  0.5167826  0.9979914

 Al 
  0.0127370  0.7544552  0.2591010

 Al 
  0.2449903  0.5050851  0.2227811

 Al 
  0.2611876  0.7441352  0.9803067

 Al 
  0.9921068  0.0124103  0.5009405

 Al 
  0.0116219  0.2467217  0.7337075

 Al 
  0.2441104  0.9906218  0.7460076

 Al 
  0.2611121  0.2320207  0.5043092

 Al 
  0.0054020  0.4974729  0.4976981

 Al 
  0.9970534  0.7486919  0.7475979

 Al 
  0.2429942  0.4913742  0.7519838

 Al 
  0.2387233  0.7470063  0.5084142

 Al 
  0.4909658  0.4984889  0.9958752

 Al 
  0.5163408  0.7776100  0.2531013

 Al 
  0.7419410  0.4882023  0.2597433

 Al 
  0.7580541  0.7479803  0.0270296

 Al 
  0.5055430  0.9957688  0.5001250

 Al 
  0.4973219  0.2461784  0.7481399

 Al 
  0.7533105  0.9973207  0.7486449

 Al 
  0.7382271  0.2667083  0.5041941

 Al 
  0.4803166  0.5066655  0.5036966

 Al 
  0.5091988  0.7390686  0.7429397

 Al 
  0.7275147  0.4791594  0.7513502

 Al 
  0.7610923  0.7502859  0.5093881

