32 
charge = 0 
 Al 
  0.0185634  0.0229617  0.0081716

 Al 
  0.9898012  0.2512252  0.2574526

 Al 
  0.2494332  0.0014789  0.2553067

 Al 
  0.2376442  0.2480174  0.9853930

 Al 
  0.5090738  0.9923259  0.9978726

 Al 
  0.4908829  0.2529900  0.2478578

 Al 
  0.7741312  0.0056247  0.2600552

 Al 
  0.7429558  0.2470608  0.9970546

 Al 
  0.9941203  0.5169831  0.9996609

 Al 
  0.0081196  0.7553846  0.2583214

 Al 
  0.2468368  0.5050889  0.2235372

 Al 
  0.2603200  0.7431006  0.9806235

 Al 
  0.9899374  0.0114821  0.4986325

 Al 
  0.0095750  0.2499406  0.7339909

 Al 
  0.2465460  0.9898421  0.7456735

 Al 
  0.2587285  0.2324848  0.5027957

 Al 
  0.0034899  0.5009257  0.4976895

 Al 
  0.9953690  0.7497612  0.7491102

 Al 
  0.2445052  0.4933889  0.7526793

 Al 
  0.2409349  0.7471672  0.5131083

 Al 
  0.4928234  0.4980323  0.9932578

 Al 
  0.5195287  0.7769195  0.2528340

 Al 
  0.7427949  0.4850304  0.2587372

 Al 
  0.7577125  0.7476635  0.0248750

 Al 
  0.5059948  0.9956933  0.5035716

 Al 
  0.5028551  0.2502735  0.7459433

 Al 
  0.7538538  0.9949928  0.7505037

 Al 
  0.7389176  0.2632419  0.5034429

 Al 
  0.4777164  0.5036830  0.5010371

 Al 
  0.5121702  0.7360094  0.7404955

 Al 
  0.7265222  0.4813116  0.7507574

 Al 
  0.7581407  0.7499158  0.5095577

