32 
charge = 0 
 Al 
  0.0171563  0.0190139  0.0143198

 Al 
  0.9924137  0.2546136  0.2493082

 Al 
  0.2469284  0.0009950  0.2568400

 Al 
  0.2356653  0.2527598  0.9903322

 Al 
  0.5001361  0.9830330  0.0030927

 Al 
  0.4947540  0.2524157  0.2414658

 Al 
  0.7718950  0.0112296  0.2569143

 Al 
  0.7465757  0.2513489  0.0020432

 Al 
  0.9965484  0.5146329  0.0033563

 Al 
  0.9967960  0.7568214  0.2555950

 Al 
  0.2515371  0.5047634  0.2293080

 Al 
  0.2571457  0.7429273  0.9834699

 Al 
  0.9871430  0.0077063  0.4955522

 Al 
  0.0017301  0.2581642  0.7365229

 Al 
  0.2536966  0.9893322  0.7457205

 Al 
  0.2513650  0.2363930  0.4983194

 Al 
  0.9987414  0.5092891  0.4979679

 Al 
  0.9910685  0.7525494  0.7542956

 Al 
  0.2478367  0.4982179  0.7526966

 Al 
  0.2476845  0.7480645  0.5226028

 Al 
  0.4990842  0.4966153  0.9882803

 Al 
  0.5247847  0.7711623  0.2537127

 Al 
  0.7445349  0.4802992  0.2549230

 Al 
  0.7567076  0.7476721  0.0160004

 Al 
  0.5075627  0.9959594  0.5128806

 Al 
  0.5138681  0.2574477  0.7409819

 Al 
  0.7552139  0.9901255  0.7565603

 Al 
  0.7408507  0.2520989  0.5018143

 Al 
  0.4725670  0.4954309  0.4919781

 Al 
  0.5182441  0.7311420  0.7358423

 Al 
  0.7297782  0.4899671  0.7488973

 Al 
  0.7499851  0.7478095  0.5084018

