32 
charge = 0 
 Al 
  0.0176712  0.0199743  0.0138149

 Al 
  0.9917665  0.2538958  0.2503601

 Al 
  0.2470917  0.0011423  0.2566705

 Al 
  0.2355836  0.2520407  0.9895995

 Al 
  0.5013539  0.9839921  0.0025642

 Al 
  0.4942515  0.2526385  0.2423246

 Al 
  0.7726858  0.0105737  0.2575615

 Al 
  0.7459928  0.2508552  0.0014405

 Al 
  0.9963183  0.5151824  0.0029318

 Al 
  0.9981647  0.7567571  0.2559935

 Al 
  0.2509566  0.5047943  0.2282387

 Al 
  0.2576358  0.7427429  0.9828994

 Al 
  0.9872271  0.0083164  0.4956178

 Al 
  0.0029479  0.2571482  0.7360316

 Al 
  0.2527437  0.9891973  0.7455869

 Al 
  0.2524132  0.2356517  0.4989134

 Al 
  0.9993330  0.5082694  0.4979060

 Al 
  0.9915920  0.7521954  0.7535444

 Al 
  0.2474741  0.4976721  0.7528538

 Al 
  0.2467700  0.7479098  0.5216870

 Al 
  0.4981820  0.4968009  0.9887048

 Al 
  0.5243973  0.7722860  0.2534256

 Al 
  0.7443530  0.4805381  0.2555146

 Al 
  0.7568499  0.7476115  0.0174274

 Al 
  0.5073412  0.9958876  0.5116937

 Al 
  0.5128125  0.2568920  0.7415314

 Al 
  0.7550480  0.9906081  0.7556532

 Al 
  0.7405636  0.2536632  0.5019826

 Al 
  0.4730397  0.4965187  0.4933271

 Al 
  0.5176835  0.7314626  0.7362581

 Al 
  0.7287238  0.4886020  0.7492216

 Al 
  0.7510321  0.7481783  0.5087174

