32 
charge = 0 
 Al 
  0.0138260  0.0133248  0.0150636

 Al 
  0.9963207  0.2586741  0.2451376

 Al 
  0.2469593  0.9998713  0.2575182

 Al 
  0.2372630  0.2559811  0.9936105

 Al 
  0.4950398  0.9801309  0.0047188

 Al 
  0.4967774  0.2507079  0.2377481

 Al 
  0.7665041  0.0135959  0.2532152

 Al 
  0.7494221  0.2530395  0.0040283

 Al 
  0.9972155  0.5114499  0.0049119

 Al 
  0.9914497  0.7565418  0.2538092

 Al 
  0.2537362  0.5048624  0.2348943

 Al 
  0.2547510  0.7443369  0.9867742

 Al 
  0.9878286  0.0046186  0.4966487

 Al 
  0.9959569  0.2621417  0.7392716

 Al 
  0.2575652  0.9909683  0.7470026

 Al 
  0.2465645  0.2403953  0.4959160

 Al 
  0.9963690  0.5132741  0.4983182

 Al 
  0.9892320  0.7539837  0.7575924

 Al 
  0.2490669  0.5000421  0.7514851

 Al 
  0.2514578  0.7488293  0.5249554

 Al 
  0.5031063  0.4959618  0.9875266

 Al 
  0.5252104  0.7648866  0.2555455

 Al 
  0.7451290  0.4809638  0.2521756

 Al 
  0.7559193  0.7481140  0.0090849

 Al 
  0.5084761  0.9963975  0.5174892

 Al 
  0.5167752  0.2583300  0.7391911

 Al 
  0.7558178  0.9888966  0.7608992

 Al 
  0.7423704  0.2454074  0.5012091

 Al 
  0.4716499  0.4908915  0.4858373

 Al 
  0.5193530  0.7310331  0.7350725

 Al 
  0.7369549  0.4963678  0.7470633

 Al 
  0.7459358  0.7459804  0.5062881

