32 
charge = 0 
 Al 
  0.0133669  0.0125662  0.0149993

 Al 
  0.9968455  0.2592000  0.2447317

 Al 
  0.2470348  0.9996918  0.2575875

 Al 
  0.2375551  0.2563301  0.9939694

 Al 
  0.4945151  0.9799391  0.0048352

 Al 
  0.4969803  0.2504443  0.2373447

 Al 
  0.7657294  0.0138013  0.2527301

 Al 
  0.7497624  0.2531756  0.0041644

 Al 
  0.9972600  0.5110279  0.0050517

 Al 
  0.9909200  0.7564576  0.2536100

 Al 
  0.2539367  0.5049045  0.2355824

 Al 
  0.2544589  0.7445411  0.9872234

 Al 
  0.9879956  0.0042337  0.4968962

 Al 
  0.9952861  0.2625291  0.7396354

 Al 
  0.2579489  0.9912603  0.7472217

 Al 
  0.2460126  0.2409076  0.4956784

 Al 
  0.9961314  0.5136615  0.4983615

 Al 
  0.9890909  0.7541310  0.7579439

 Al 
  0.2491708  0.5001819  0.7513069

 Al 
  0.2518415  0.7489221  0.5250433

 Al 
  0.5035506  0.4959099  0.9875526

 Al 
  0.5251299  0.7640649  0.2557893

 Al 
  0.7451760  0.4812064  0.2518675

 Al 
  0.7558054  0.7481771  0.0082731

 Al 
  0.5085676  0.9964569  0.5179211

 Al 
  0.5169323  0.2582917  0.7390637

 Al 
  0.7558673  0.9888595  0.7614116

 Al 
  0.7425734  0.2447045  0.5011460

 Al 
  0.4716796  0.4904176  0.4851579

 Al 
  0.5193295  0.7311420  0.7351035

 Al 
  0.7379895  0.4970930  0.7468195

 Al 
  0.7455584  0.7457688  0.5059787

