32 
charge = 0 
 Al 
  0.0158680  0.0167516  0.0149522

 Al 
  0.9939570  0.2562571  0.2473417

 Al 
  0.2467922  0.0005965  0.2571556

 Al 
  0.2361381  0.2542003  0.9917950

 Al 
  0.4977947  0.9814712  0.0039540

 Al 
  0.4956995  0.2518019  0.2397913

 Al 
  0.7698616  0.0123967  0.2554267

 Al 
  0.7477934  0.2522053  0.0030840

 Al 
  0.9969098  0.5133595  0.0041137

 Al 
  0.9942763  0.7568066  0.2548017

 Al 
  0.2525976  0.5047522  0.2316432

 Al 
  0.2561272  0.7434471  0.9847817

 Al 
  0.9872482  0.0064118  0.4957712

 Al 
  0.9992265  0.2600453  0.7376318

 Al 
  0.2555022  0.9898458  0.7461438

 Al 
  0.2492599  0.2380352  0.4971969

 Al 
  0.9976325  0.5111727  0.4981102

 Al 
  0.9901379  0.7532152  0.7557819

 Al 
  0.2484555  0.4991560  0.7522524

 Al 
  0.2494307  0.7483899  0.5239988

 Al 
  0.5008774  0.4962848  0.9877184

 Al 
  0.5252339  0.7686228  0.2544317

 Al 
  0.7448406  0.4802497  0.2537152

 Al 
  0.7563982  0.7478367  0.0130241

 Al 
  0.5079872  0.9961301  0.5150809

 Al 
  0.5155091  0.2581407  0.7400475

 Al 
  0.7555146  0.9893842  0.7584290

 Al 
  0.7414682  0.2490508  0.5015247

 Al 
  0.4719073  0.4933481  0.4892567

 Al 
  0.5190250  0.7308376  0.7352730

 Al 
  0.7324798  0.4927689  0.7481622

 Al 
  0.7480484  0.7470249  0.5076085

