32 
charge = 0 
 Al 
  0.0162207  0.0173581  0.0148396

 Al 
  0.9935412  0.2558215  0.2478169

 Al 
  0.2468034  0.0007104  0.2570789

 Al 
  0.2359834  0.2538402  0.9914299

 Al 
  0.4983689  0.9818190  0.0037622

 Al 
  0.4954705  0.2519764  0.2402059

 Al 
  0.7704260  0.0121219  0.2558227

 Al 
  0.7474816  0.2520086  0.0028464

 Al 
  0.9968306  0.5136998  0.0039342

 Al 
  0.9948814  0.7568276  0.2549998

 Al 
  0.2523452  0.5047485  0.2310368

 Al 
  0.2563871  0.7432998  0.9844315

 Al 
  0.9871900  0.0067460  0.4956747

 Al 
  0.9998614  0.2595923  0.7373385

 Al 
  0.2550641  0.9896862  0.7460175

 Al 
  0.2497896  0.2376046  0.4974704

 Al 
  0.9979011  0.5107198  0.4980731

 Al 
  0.9903557  0.7530543  0.7554131

 Al 
  0.2483132  0.4989406  0.7523786

 Al 
  0.2490050  0.7483058  0.5237030

 Al 
  0.5004307  0.4963628  0.9878236

 Al 
  0.5251609  0.7692936  0.2542349

 Al 
  0.7447713  0.4802101  0.2540196

 Al 
  0.7564799  0.7477910  0.0137840

 Al 
  0.5078833  0.9960844  0.5145525

 Al 
  0.5151552  0.2580157  0.7402604

 Al 
  0.7554440  0.9895414  0.7579538

 Al 
  0.7413074  0.2498032  0.5015915

 Al 
  0.4720360  0.4938580  0.4899399

 Al 
  0.5188728  0.7308722  0.7353819

 Al 
  0.7317299  0.4920598  0.7483578

 Al 
  0.7485124  0.7472254  0.5078276

