32 
charge = 0 
 Al 
  0.0168655  0.0184904  0.0145240

 Al 
  0.9927689  0.2549985  0.2487996

 Al 
  0.2468702  0.0009084  0.2569217

 Al 
  0.2357458  0.2531199  0.9906985

 Al 
  0.4995396  0.9825986  0.0033315

 Al 
  0.4949978  0.2522833  0.2410425

 Al 
  0.7714420  0.0115390  0.2565665

 Al 
  0.7468727  0.2515804  0.0023254

 Al 
  0.9966499  0.5143359  0.0035555

 Al 
  0.9961400  0.7568351  0.2553958

 Al 
  0.2518143  0.5047547  0.2298686

 Al 
  0.2568969  0.7430387  0.9837756

 Al 
  0.9871368  0.0073932  0.4955646

 Al 
  0.0011138  0.2586530  0.7367841

 Al 
  0.2541607  0.9894300  0.7458059

 Al 
  0.2508415  0.2367828  0.4980310

 Al 
  0.9984555  0.5097780  0.4980013

 Al 
  0.9908210  0.7527214  0.7546706

 Al 
  0.2480038  0.4984716  0.7526014

 Al 
  0.2481313  0.7481437  0.5230050

 Al 
  0.4995347  0.4965274  0.9881045

 Al 
  0.5249369  0.7705633  0.2538760

 Al 
  0.7446178  0.4802337  0.2546235

 Al 
  0.7566333  0.7477093  0.0152728

 Al 
  0.5076704  0.9959977  0.5134535

 Al 
  0.5143347  0.2576704  0.7407282

 Al 
  0.7552931  0.9899114  0.7570195

 Al 
  0.7409992  0.2513267  0.5017363

 Al 
  0.4723665  0.4948988  0.4912999

 Al 
  0.5184818  0.7310245  0.7356666

 Al 
  0.7303797  0.4906589  0.7487253

 Al 
  0.7494815  0.7476189  0.5082248

