32 
charge = 0 
 Al 
  0.0146973  0.0147715  0.0151069

 Al 
  0.9953208  0.2576630  0.2459853

 Al 
  0.2468492  0.0001943  0.2573771

 Al 
  0.2367457  0.2552745  0.9928877

 Al 
  0.4961178  0.9805888  0.0044503

 Al 
  0.4963591  0.2511905  0.2385600

 Al 
  0.7679521  0.0131503  0.2541458

 Al 
  0.7487550  0.2527363  0.0037028

 Al 
  0.9971103  0.5122543  0.0046112

 Al 
  0.9925424  0.7566791  0.2542065

 Al 
  0.2533068  0.5047993  0.2335540

 Al 
  0.2553166  0.7439533  0.9859277

 Al 
  0.9875415  0.0053624  0.4962217

 Al 
  0.9972836  0.2613348  0.7385798

 Al 
  0.2567670  0.9904534  0.7466128

 Al 
  0.2476548  0.2394102  0.4964111

 Al 
  0.9968591  0.5124660  0.4982315

 Al 
  0.9895562  0.7536842  0.7568759

 Al 
  0.2488416  0.4997253  0.7518180

 Al 
  0.2506683  0.7486486  0.5246758

 Al 
  0.5022152  0.4960782  0.9875377

 Al 
  0.5252958  0.7664559  0.2550765

 Al 
  0.7450250  0.4805777  0.2527944

 Al 
  0.7561284  0.7479939  0.0106864

 Al 
  0.5082867  0.9962836  0.5165734

 Al 
  0.5163668  0.2583350  0.7394906

 Al 
  0.7557076  0.9890315  0.7598918

 Al 
  0.7419880  0.2468417  0.5013329

 Al 
  0.4716734  0.4918568  0.4872036

 Al 
  0.5193097  0.7308821  0.7350824

 Al 
  0.7350218  0.4949186  0.7475261

 Al 
  0.7467378  0.7464036  0.5068610

