32 
charge = 0 
 Al 
  0.0142703  0.0140599  0.0150995

 Al 
  0.9958121  0.2581617  0.2455559

 Al 
  0.2468974  0.0000384  0.2574489

 Al 
  0.2369932  0.2556284  0.9932491

 Al 
  0.4955745  0.9803475  0.0045914

 Al 
  0.4965695  0.2509566  0.2381541

 Al 
  0.7672454  0.0133793  0.2536879

 Al 
  0.7490854  0.2528934  0.0038748

 Al 
  0.9971660  0.5118596  0.0047646

 Al 
  0.9919905  0.7566148  0.2540085

 Al 
  0.2535258  0.5048277  0.2342174

 Al 
  0.2550369  0.7441414  0.9863423

 Al 
  0.9876764  0.0049948  0.4964234

 Al 
  0.9966227  0.2617432  0.7389201

 Al 
  0.2571704  0.9906997  0.7467997

 Al 
  0.2471115  0.2398965  0.4961611

 Al 
  0.9966116  0.5128756  0.4982748

 Al 
  0.9893879  0.7538352  0.7572360

 Al 
  0.2489580  0.4998899  0.7516559

 Al 
  0.2510668  0.7487389  0.5248329

 Al 
  0.5026608  0.4960175  0.9875217

 Al 
  0.5252661  0.7656836  0.2553079

 Al 
  0.7450795  0.4807547  0.2524850

 Al 
  0.7560269  0.7480521  0.0098894

 Al 
  0.5083820  0.9963393  0.5170388

 Al 
  0.5165858  0.2583449  0.7393334

 Al 
  0.7557646  0.9889535  0.7603930

 Al 
  0.7421749  0.2461202  0.5012710

 Al 
  0.4716474  0.4913717  0.4865192

 Al 
  0.5193456  0.7309465  0.7350651

 Al 
  0.7359648  0.4956425  0.7472984

 Al 
  0.7463294  0.7461933  0.5065826

