32 
charge = 0 
 Al 
  0.0165536  0.0179385  0.0146973

 Al 
  0.9931451  0.2554020  0.2483021

 Al 
  0.2468294  0.0008143  0.2570009

 Al 
  0.2358522  0.2534800  0.9910648

 Al 
  0.4989505  0.9821940  0.0035543

 Al 
  0.4952366  0.2521373  0.2406230

 Al 
  0.7709532  0.0118360  0.2562027

 Al 
  0.7471746  0.2517994  0.0025927

 Al 
  0.9967440  0.5140253  0.0037486

 Al 
  0.9955027  0.7568375  0.2551978

 Al 
  0.2520841  0.5047485  0.2304440

 Al 
  0.2566445  0.7431637  0.9840961

 Al 
  0.9871529  0.0070727  0.4956054

 Al 
  0.0004901  0.2591295  0.7370563

 Al 
  0.2546161  0.9895475  0.7459049

 Al 
  0.2503156  0.2371875  0.4977476

 Al 
  0.9981746  0.5102544  0.4980360

 Al 
  0.9905821  0.7528897  0.7550418

 Al 
  0.2481622  0.4987129  0.7524949

 Al 
  0.2485719  0.7482241  0.5233726

 Al 
  0.4999827  0.4964432  0.9879523

 Al 
  0.5250631  0.7699408  0.2540505

 Al 
  0.7446970  0.4802040  0.2543228

 Al 
  0.7565578  0.7477489  0.0145327

 Al 
  0.5077781  0.9960398  0.5140104

 Al 
  0.5147641  0.2578598  0.7404869

 Al 
  0.7553698  0.9897171  0.7574848

 Al 
  0.7411514  0.2505606  0.5016620

 Al 
  0.4721895  0.4943753  0.4906205

 Al 
  0.5186921  0.7309353  0.7355131

 Al 
  0.7310294  0.4913569  0.7485459

 Al 
  0.7489901  0.7474246  0.5080330

