32 
charge = 0 
 Al 
  0.0119016  0.0101666  0.0146428

 Al 
  0.9985038  0.2608398  0.2435894

 Al 
  0.2473380  0.9990830  0.2577892

 Al 
  0.2385525  0.2573524  0.9950262

 Al 
  0.4930016  0.9795084  0.0051210

 Al 
  0.4975645  0.2495669  0.2361480

 Al 
  0.7632209  0.0143409  0.2511955

 Al 
  0.7508118  0.2535233  0.0044527

 Al 
  0.9973677  0.5096926  0.0054341

 Al 
  0.9893978  0.7561532  0.2530110

 Al 
  0.2544775  0.5050752  0.2376999

 Al 
  0.2535493  0.7451945  0.9886714

 Al 
  0.9885884  0.0030258  0.4977736

 Al 
  0.9932503  0.2636256  0.7407962

 Al 
  0.2590367  0.9922689  0.7479716

 Al 
  0.2443320  0.2425189  0.4950052

 Al 
  0.9954507  0.5147567  0.4984988

 Al 
  0.9887629  0.7545579  0.7589699

 Al 
  0.2494518  0.5005247  0.7507339

 Al 
  0.2529417  0.7492117  0.5251027

 Al 
  0.5048748  0.4957886  0.9877543

 Al 
  0.5247364  0.7614623  0.2565393

 Al 
  0.7452973  0.4821246  0.2509443

 Al 
  0.7554131  0.7483813  0.0058128

 Al 
  0.5088238  0.9966450  0.5191067

 Al 
  0.5172281  0.2580454  0.7387765

 Al 
  0.7559873  0.9888768  0.7629783

 Al 
  0.7432380  0.2426625  0.5009517

 Al 
  0.4719469  0.4890327  0.4831506

 Al 
  0.5190832  0.7315962  0.7353448

 Al 
  0.7413445  0.4992637  0.7460472

 Al 
  0.7445213  0.7451339  0.5049614

