32 
charge = 0 
 Al 
  0.0108658  0.0084847  0.0142790

 Al 
  0.9996646  0.2619697  0.2428989

 Al 
  0.2475979  0.9986164  0.2579167

 Al 
  0.2393136  0.2580046  0.9957094

 Al 
  0.4920548  0.9793401  0.0052621

 Al 
  0.4979333  0.2489171  0.2353671

 Al 
  0.7614140  0.0146342  0.2501225

 Al 
  0.7515296  0.2537053  0.0045419

 Al 
  0.9974197  0.5087558  0.0056519

 Al 
  0.9884375  0.7559069  0.2526113

 Al 
  0.2547807  0.5052312  0.2391392

 Al 
  0.2529169  0.7456524  0.9897183

 Al 
  0.9890476  0.0021806  0.4984543

 Al 
  0.9918865  0.2642951  0.7416229

 Al 
  0.2597025  0.9930498  0.7485483

 Al 
  0.2431959  0.2436451  0.4945968

 Al 
  0.9950275  0.5154237  0.4985904

 Al 
  0.9886330  0.7548314  0.7596196

 Al 
  0.2496164  0.5006906  0.7503255

 Al 
  0.2536310  0.7494134  0.5249740

 Al 
  0.5057460  0.4957354  0.9879833

 Al 
  0.5243490  0.7596282  0.2570430

 Al 
  0.7453616  0.4828820  0.2503391

 Al 
  0.7551087  0.7485248  0.0041706

 Al 
  0.5089785  0.9967749  0.5197936

 Al 
  0.5172850  0.2577880  0.7386689

 Al 
  0.7560418  0.9889981  0.7640352

 Al 
  0.7437293  0.2413705  0.5008094

 Al 
  0.4722811  0.4881442  0.4818586

 Al 
  0.5187713  0.7319935  0.7356294

 Al 
  0.7437614  0.5006881  0.7455039

 Al 
  0.7439186  0.7447230  0.5042164

