32 
charge = 0 
 Al 
  0.0113881  0.0093325  0.0144733

 Al 
  0.9990805  0.2614029  0.2432367

 Al 
  0.2474630  0.9988553  0.2578536

 Al 
  0.2389251  0.2576816  0.9953703

 Al 
  0.4925214  0.9794119  0.0051965

 Al 
  0.4977513  0.2492476  0.2357557

 Al 
  0.7623286  0.0144943  0.2506633

 Al 
  0.7511695  0.2536199  0.0045072

 Al 
  0.9973962  0.5092285  0.0055468

 Al 
  0.9889114  0.7560344  0.2528105

 Al 
  0.2546347  0.5051495  0.2384177

 Al 
  0.2532350  0.7454223  0.9891874

 Al 
  0.9888124  0.0026075  0.4981053

 Al 
  0.9925684  0.2639671  0.7412046

 Al 
  0.2593758  0.9926489  0.7482526

 Al 
  0.2437652  0.2430771  0.4947973

 Al 
  0.9952366  0.5150970  0.4985446

 Al 
  0.9886887  0.7546965  0.7592990

 Al 
  0.2495359  0.5006138  0.7505322

 Al 
  0.2532919  0.7493119  0.5250557

 Al 
  0.5053129  0.4957589  0.9878595

 Al 
  0.5245545  0.7605539  0.2567917

 Al 
  0.7453307  0.4824897  0.2506398

 Al 
  0.7552658  0.7484530  0.0049899

 Al 
  0.5089030  0.9967093  0.5194607

 Al 
  0.5172702  0.2579254  0.7387147

 Al 
  0.7560170  0.9889263  0.7635068

 Al 
  0.7434793  0.2420091  0.5008824

 Al 
  0.4720979  0.4885847  0.4824984

 Al 
  0.5189421  0.7317868  0.7354747

 Al 
  0.7425375  0.4999790  0.7457774

 Al 
  0.7442107  0.7449272  0.5045951

