32 
charge = 0 
 Al 
  0.0092545  0.0058908  0.0135662

 Al 
  0.0014479  0.2636738  0.2419831

 Al 
  0.2480595  0.9978330  0.2580998

 Al 
  0.2405797  0.2589191  0.9966821

 Al 
  0.4907492  0.9792560  0.0054057

 Al 
  0.4984493  0.2478590  0.2342372

 Al 
  0.7585590  0.0149658  0.2484679

 Al 
  0.7526199  0.2539045  0.0045134

 Al 
  0.9974729  0.5073115  0.0059143

 Al 
  0.9870885  0.7554861  0.2520172

 Al 
  0.2551421  0.5055331  0.2412937

 Al 
  0.2519355  0.7463517  0.9913915

 Al 
  0.9898074  0.0008663  0.4995941

 Al 
  0.9898619  0.2651923  0.7429261

 Al 
  0.2605948  0.9943703  0.7495099

 Al 
  0.2414806  0.2453864  0.4940547

 Al 
  0.9944483  0.5163173  0.4987265

 Al 
  0.9885884  0.7552200  0.7605193

 Al 
  0.2498317  0.5008502  0.7496918

 Al 
  0.2545839  0.7497314  0.5245359

 Al 
  0.5070170  0.4957019  0.9884573

 Al 
  0.5235842  0.7567682  0.2577731

 Al 
  0.7454396  0.4842112  0.2494629

 Al 
  0.7545802  0.7487402  0.0017561

 Al 
  0.5091778  0.9969704  0.5206487

 Al 
  0.5171737  0.2572954  0.7386379

 Al 
  0.7560801  0.9893495  0.7656131

 Al 
  0.7445386  0.2395661  0.5005693

 Al 
  0.4730236  0.4868732  0.4800319

 Al 
  0.5180919  0.7327051  0.7362395

 Al 
  0.7475818  0.5027585  0.7446649

 Al 
  0.7431575  0.7441414  0.5030135

