32 
charge = 0 
 Al 
  0.0097965  0.0067608  0.0138236

 Al 
  0.0008514  0.2631070  0.2422702

 Al 
  0.2478974  0.9981041  0.2580404

 Al 
  0.2401428  0.2586233  0.9963665

 Al 
  0.4911675  0.9792622  0.0053661

 Al 
  0.4982823  0.2482204  0.2346072

 Al 
  0.7595255  0.0148706  0.2490236

 Al 
  0.7522561  0.2538488  0.0045443

 Al 
  0.9974580  0.5077954  0.0058363

 Al 
  0.9875254  0.7556334  0.2522140

 Al 
  0.2550356  0.5054242  0.2405797

 Al 
  0.2522660  0.7461190  0.9908210

 Al 
  0.9895463  0.0013093  0.4992005

 Al 
  0.9905314  0.2649077  0.7424843

 Al 
  0.2603126  0.9939112  0.7491770

 Al 
  0.2420524  0.2448010  0.4942255

 Al 
  0.9946339  0.5160339  0.4986820

 Al 
  0.9885822  0.7550938  0.7602309

 Al 
  0.2497636  0.5008094  0.7499047

 Al 
  0.2542770  0.7496238  0.5247141

 Al 
  0.5065999  0.4957069  0.9882840

 Al 
  0.5238627  0.7577323  0.2575355

 Al 
  0.7454161  0.4837459  0.2497500

 Al 
  0.7547659  0.7486696  0.0025506

 Al 
  0.5091159  0.9969061  0.5203888

 Al 
  0.5172355  0.2574712  0.7386305

 Al 
  0.7560740  0.9892097  0.7650908

 Al 
  0.7442589  0.2401478  0.5006534

 Al 
  0.4727427  0.4872878  0.4806235

 Al 
  0.5183456  0.7324551  0.7360118

 Al 
  0.7462886  0.5020803  0.7449470

 Al 
  0.7433914  0.7443295  0.5034243

