32 
charge = 0 
 Al 
  0.0039330  0.9975769  0.0103200

 Al 
  0.0070133  0.2686761  0.2401799

 Al 
  0.2498973  0.9947181  0.2586481

 Al 
  0.2454953  0.2612012  0.9992042

 Al 
  0.4876615  0.9802398  0.0054156

 Al 
  0.4997735  0.2440300  0.2310999

 Al 
  0.7487921  0.0150191  0.2431043

 Al 
  0.7560876  0.2539949  0.0031261

 Al 
  0.9975162  0.5027635  0.0060962

 Al 
  0.9835045  0.7538142  0.2501720

 Al 
  0.2554032  0.5071407  0.2477006

 Al 
  0.2486362  0.7483899  0.9974519

 Al 
  0.9926068  0.9963715  0.5038785

 Al 
  0.9839241  0.2670053  0.7474308

 Al 
  0.2624957  0.9996609  0.7532127

 Al 
  0.2360094  0.2511138  0.4930090

 Al 
  0.9931464  0.5182045  0.4990805

 Al 
  0.9899139  0.7562571  0.7625736

 Al 
  0.2503515  0.5007401  0.7476796

 Al 
  0.2569192  0.7509009  0.5212663

 Al 
  0.5106047  0.4960138  0.9908074

 Al 
  0.5196129  0.7471759  0.2595243

 Al 
  0.7456178  0.4896292  0.2470336

 Al 
  0.7522586  0.7492389  0.9949198

 Al 
  0.5094686  0.9975088  0.5217774

 Al 
  0.5154411  0.2552473  0.7396664

 Al 
  0.7557745  0.9918791  0.7702341

 Al 
  0.7477650  0.2351703  0.4994406

 Al 
  0.4776249  0.4833337  0.4756138

 Al 
  0.5143607  0.7356109  0.7396008

 Al 
  0.7604685  0.5086134  0.7419806

 Al 
  0.7419212  0.7427615  0.4987538

