32 
charge = 0 
 Al 
  0.0076172  0.0032845  0.0126962

 Al 
  0.0032239  0.2653297  0.2412306

 Al 
  0.2485830  0.9969630  0.2582743

 Al 
  0.2419645  0.2597384  0.9975707

 Al 
  0.4896057  0.9793636  0.0054762

 Al 
  0.4989147  0.2467304  0.2331791

 Al 
  0.7556049  0.0151601  0.2468009

 Al 
  0.7537053  0.2540184  0.0042943

 Al 
  0.9975026  0.5058660  0.0060888

 Al 
  0.9858584  0.7550158  0.2514356

 Al 
  0.2553784  0.5059205  0.2433865

 Al 
  0.2509344  0.7470336  0.9931600

 Al 
  0.9906242  0.9995174  0.5008329

 Al 
  0.9879090  0.2659410  0.7442763

 Al 
  0.2613472  0.9958393  0.7505656

 Al 
  0.2397802  0.2471499  0.4936105

 Al 
  0.9939458  0.5170660  0.4988553

 Al 
  0.9887419  0.7555765  0.7613051

 Al 
  0.2500161  0.5009108  0.7490533

 Al 
  0.2554279  0.7500656  0.5238218

 Al 
  0.5082187  0.4957267  0.9890612

 Al 
  0.5226090  0.7538439  0.2584377

 Al 
  0.7455002  0.4857222  0.2486449

 Al 
  0.7539701  0.7489394  0.9994617

 Al 
  0.5093300  0.9971573  0.5212737

 Al 
  0.5168507  0.2567138  0.7387666

 Al 
  0.7560616  0.9898990  0.7671365

 Al 
  0.7454309  0.2379622  0.5002871

 Al 
  0.4740632  0.4856925  0.4783971

 Al 
  0.5171823  0.7335219  0.7370526

 Al 
  0.7515210  0.5047077  0.7438196

 Al 
  0.7425783  0.7436228  0.5017450

