32 
charge = 0 
 Al 
  0.0029516  0.9961066  0.0096097

 Al 
  0.0079513  0.2694458  0.2400624

 Al 
  0.2502661  0.9940448  0.2587496

 Al 
  0.2465546  0.2614994  0.9995433

 Al 
  0.4872939  0.9806222  0.0053500

 Al 
  0.4999567  0.2432825  0.2306185

 Al 
  0.7469445  0.0148173  0.2421328

 Al 
  0.7567051  0.2539293  0.0026546

 Al 
  0.9975162  0.5019950  0.0059898

 Al 
  0.9829650  0.7534602  0.2498354

 Al 
  0.2552733  0.5075665  0.2487402

 Al 
  0.2480100  0.7486919  0.9986845

 Al 
  0.9931724  0.9954940  0.5047461

 Al 
  0.9829860  0.2671143  0.7483033

 Al 
  0.2626640  0.0008168  0.7539837

 Al 
  0.2350007  0.2521682  0.4929558

 Al 
  0.9930276  0.5183729  0.4991139

 Al 
  0.9904633  0.7564130  0.7627803

 Al 
  0.2504294  0.5006336  0.7473392

 Al 
  0.2572212  0.7511534  0.5203517

 Al 
  0.5111591  0.4961512  0.9913556

 Al 
  0.5185919  0.7453789  0.2596802

 Al 
  0.7456586  0.4907789  0.2466524

 Al 
  0.7517054  0.7492637  0.9938753

 Al 
  0.5094500  0.9975793  0.5216809

 Al 
  0.5149064  0.2548426  0.7400686

 Al 
  0.7556272  0.9926006  0.7709606

 Al 
  0.7484815  0.2346295  0.4991436

 Al 
  0.4789255  0.4827558  0.4751238

 Al 
  0.5134214  0.7362160  0.7404609

 Al 
  0.7628310  0.5095577  0.7415165

 Al 
  0.7418903  0.7426192  0.4979345

