32 
charge = 0 
 Al 
  0.0070739  0.0024281  0.0123781

 Al 
  0.0038030  0.2658594  0.2410202

 Al 
  0.2487674  0.9966573  0.2583300

 Al 
  0.2424472  0.2599871  0.9978442

 Al 
  0.4892654  0.9794379  0.0054861

 Al 
  0.4990570  0.2463455  0.2328461

 Al 
  0.7546136  0.0151911  0.2462514

 Al 
  0.7540617  0.2540382  0.0041805

 Al 
  0.9975075  0.5053921  0.0061259

 Al 
  0.9854772  0.7548512  0.2512462

 Al 
  0.2554279  0.5060678  0.2440597

 Al 
  0.2506002  0.7472514  0.9937652

 Al 
  0.9909052  0.9990644  0.5012611

 Al 
  0.9872840  0.2661551  0.7447305

 Al 
  0.2615638  0.9963566  0.7509319

 Al 
  0.2392221  0.2477340  0.4934867

 Al 
  0.9937973  0.5172826  0.4988949

 Al 
  0.9888384  0.7556866  0.7615366

 Al 
  0.2500718  0.5009096  0.7488429

 Al 
  0.2556829  0.7501807  0.5235273

 Al 
  0.5085986  0.4957490  0.9892864

 Al 
  0.5222402  0.7528674  0.2586382

 Al 
  0.7455175  0.4862556  0.2483875

 Al 
  0.7537486  0.7489988  0.9987364

 Al 
  0.5093683  0.9972167  0.5214272

 Al 
  0.5167009  0.2565083  0.7388446

 Al 
  0.7560418  0.9901243  0.7676241

 Al 
  0.7457440  0.2374796  0.5001832

 Al 
  0.4744765  0.4853213  0.4779046

 Al 
  0.5168333  0.7338102  0.7373657

 Al 
  0.7528390  0.5053228  0.7435424

 Al 
  0.7424261  0.7434669  0.5013143

