32 
charge = 0 
 Al 
  0.9997983  0.9916155  0.0071593

 Al 
  0.0106393  0.2713863  0.2402455

 Al 
  0.2514492  0.9916316  0.2591146

 Al 
  0.2504195  0.2621727  0.0002871

 Al 
  0.4865997  0.9823029  0.0049750

 Al 
  0.5003836  0.2408569  0.2293537

 Al 
  0.7409212  0.0134684  0.2390550

 Al 
  0.7585899  0.2535679  0.0006720

 Al 
  0.9975608  0.4998156  0.0052126

 Al 
  0.9814873  0.7522350  0.2487278

 Al 
  0.2543438  0.5093151  0.2516967

 Al 
  0.2459544  0.7494060  0.0029714

 Al 
  0.9951314  0.9924843  0.5077088

 Al 
  0.9805455  0.2667541  0.7512091

 Al 
  0.2626838  0.0050406  0.7566816

 Al 
  0.2316841  0.2555517  0.4931835

 Al 
  0.9930523  0.5184706  0.4990632

 Al 
  0.9931823  0.7568561  0.7629771

 Al 
  0.2506819  0.5001337  0.7463863

 Al 
  0.2578845  0.7520878  0.5166304

 Al 
  0.5126541  0.4968145  0.9933394

 Al 
  0.5144473  0.7395797  0.2595961

 Al 
  0.7459111  0.4947688  0.2455411

 Al 
  0.7495446  0.7490854  0.9911341

 Al 
  0.5091840  0.9977068  0.5205398

 Al 
  0.5126875  0.2535790  0.7419633

 Al 
  0.7548599  0.9955918  0.7728739

 Al 
  0.7511509  0.2335800  0.4978578

 Al 
  0.4844896  0.4809465  0.4745235

 Al 
  0.5097693  0.7382828  0.7438654

 Al 
  0.7701153  0.5123868  0.7401911

 Al 
  0.7421935  0.7425226  0.4952638

