32 
charge = 0 
 Al 
  0.0010977  0.9934186  0.0081964

 Al 
  0.0096022  0.2706995  0.2400562

 Al 
  0.2509641  0.9926761  0.2589538

 Al 
  0.2487290  0.2619487  0.0000520

 Al 
  0.4867903  0.9815220  0.0051619

 Al 
  0.5002401  0.2418556  0.2298154

 Al 
  0.7434199  0.0141763  0.2403148

 Al 
  0.7578375  0.2537424  0.0015779

 Al 
  0.9975286  0.5006497  0.0056235

 Al 
  0.9820467  0.7527573  0.2491931

 Al 
  0.2548327  0.5085157  0.2505532

 Al 
  0.2468096  0.7491659  0.0011361

 Al 
  0.9942924  0.9937664  0.5064539

 Al 
  0.9814229  0.2670548  0.7499913

 Al 
  0.2627865  0.0031954  0.7555245

 Al 
  0.2330689  0.2541570  0.4930078

 Al 
  0.9929533  0.5185201  0.4991226

 Al 
  0.9918593  0.7566816  0.7629907

 Al 
  0.2505767  0.5003663  0.7467489

 Al 
  0.2576716  0.7516769  0.5183209

 Al 
  0.5120972  0.4964952  0.9924818

 Al 
  0.5163358  0.7419732  0.2597557

 Al 
  0.7457774  0.4930697  0.2459816

 Al 
  0.7505148  0.7492154  0.9921402

 Al 
  0.5093362  0.9976734  0.5211821

 Al 
  0.5136998  0.2540864  0.7410586

 Al 
  0.7552386  0.9942231  0.7721759

 Al 
  0.7499752  0.2338758  0.4984605

 Al 
  0.4819068  0.4816903  0.4745669

 Al 
  0.5114029  0.7374090  0.7423321

 Al 
  0.7671897  0.5112532  0.7406997

 Al 
  0.7419954  0.7424855  0.4963702

