32 
charge = 0 
 Al 
  0.9966239  0.9876355  0.0045443

 Al 
  0.0125811  0.2721128  0.2415017

 Al 
  0.2525519  0.9887778  0.2596196

 Al 
  0.2552510  0.2623942  0.0003713

 Al 
  0.4867915  0.9847829  0.0042622

 Al 
  0.5004777  0.2385439  0.2287808

 Al 
  0.7347631  0.0104289  0.2360688

 Al 
  0.7601307  0.2530444  0.9979778

 Al 
  0.9978268  0.4983206  0.0035122

 Al 
  0.9804775  0.7508811  0.2475063

 Al 
  0.2523501  0.5118039  0.2540097

 Al 
  0.2438196  0.7495607  0.0079043

 Al 
  0.9974197  0.9890043  0.5109933

 Al 
  0.9795938  0.2647889  0.7542659

 Al 
  0.2614945  0.0102990  0.7598151

 Al 
  0.2281855  0.2589587  0.4942627

 Al 
  0.9940547  0.5177033  0.4985384

 Al 
  0.9980385  0.7572645  0.7622630

 Al 
  0.2509777  0.4994468  0.7457799

 Al 
  0.2579922  0.7532375  0.5114004

 Al 
  0.5135488  0.4979209  0.9956314

 Al 
  0.5084377  0.7338102  0.2582050

 Al 
  0.7465955  0.4992080  0.2445151

 Al 
  0.7466103  0.7483231  0.9895884

 Al 
  0.5084934  0.9976660  0.5176328

 Al 
  0.5095725  0.2525382  0.7450943

 Al 
  0.7534342  0.9998564  0.7737662

 Al 
  0.7546000  0.2338374  0.4957613

 Al 
  0.4930102  0.4790085  0.4760086

 Al 
  0.5048116  0.7405549  0.7485558

 Al 
  0.7763923  0.5150413  0.7393297

 Al 
  0.7430882  0.7432479  0.4925350

