32 
charge = 0 
 Al 
  0.9958876  0.9868237  0.0039429

 Al 
  0.0128768  0.2720299  0.2419620

 Al 
  0.2527759  0.9880612  0.2597631

 Al 
  0.2565331  0.2623818  0.0002871

 Al 
  0.4869833  0.9854871  0.0040283

 Al 
  0.5004344  0.2380625  0.2288117

 Al 
  0.7333313  0.0093646  0.2354005

 Al 
  0.7603906  0.2529194  0.9972761

 Al 
  0.9979568  0.4981127  0.0029466

 Al 
  0.9803351  0.7505569  0.2471969

 Al 
  0.2516917  0.5124920  0.2544527

 Al 
  0.2433172  0.7494876  0.0091456

 Al 
  0.9980100  0.9881058  0.5118026

 Al 
  0.9797151  0.2640154  0.7549800

 Al 
  0.2609636  0.0116987  0.7606121

 Al 
  0.2273613  0.2597495  0.4946822

 Al 
  0.9944941  0.5173680  0.4983095

 Al 
  0.9995854  0.7573598  0.7619363

 Al 
  0.2510631  0.4992760  0.7457156

 Al 
  0.2579229  0.7535246  0.5099314

 Al 
  0.5136318  0.4982526  0.9961945

 Al 
  0.5066927  0.7325083  0.2576296

 Al 
  0.7468690  0.5002846  0.2442701

 Al 
  0.7458034  0.7480397  0.9894424

 Al 
  0.5082521  0.9976375  0.5166192

 Al 
  0.5087087  0.2523600  0.7460386

 Al 
  0.7529689  0.0010495  0.7737451

 Al 
  0.7555443  0.2341295  0.4951129

 Al 
  0.4955324  0.4785110  0.4767573

 Al 
  0.5034082  0.7411155  0.7498738

 Al 
  0.7775865  0.5156465  0.7392369

 Al 
  0.7433729  0.7435857  0.4918952

