32 
charge = 0 
 Al 
  0.9981647  0.9894807  0.0058178

 Al 
  0.0117593  0.2719556  0.2407455

 Al 
  0.2520383  0.9902146  0.2593510

 Al 
  0.2527721  0.2623434  0.0004220

 Al 
  0.4865749  0.9834724  0.0046594

 Al 
  0.5004839  0.2396305  0.2289379

 Al 
  0.7377580  0.0121776  0.2374981

 Al 
  0.7594513  0.2533092  0.9993627

 Al 
  0.9976511  0.4989357  0.0044750

 Al 
  0.9808957  0.7515494  0.2481189

 Al 
  0.2534751  0.5104982  0.2529726

 Al 
  0.2448629  0.7495718  0.0054267

 Al 
  0.9962626  0.9907641  0.5093597

 Al 
  0.9798005  0.2659918  0.7527721

 Al 
  0.2622667  0.0076011  0.7582360

 Al 
  0.2299007  0.2573053  0.4936080

 Al 
  0.9934100  0.5182021  0.4988751

 Al 
  0.9953530  0.7570665  0.7627419

 Al 
  0.2508242  0.4997970  0.7460163

 Al 
  0.2580169  0.7526570  0.5141478

 Al 
  0.5132097  0.4973219  0.9944879

 Al 
  0.5116318  0.7365861  0.2590812

 Al 
  0.7461821  0.4970076  0.2450101

 Al 
  0.7481412  0.7487810  0.9901639

 Al 
  0.5088919  0.9977056  0.5193109

 Al 
  0.5112037  0.2529986  0.7433964

 Al 
  0.7542288  0.9976152  0.7735038

 Al 
  0.7528117  0.2335243  0.4969061

 Al 
  0.4884399  0.4799824  0.4749691

 Al 
  0.5074130  0.7394263  0.7460955

 Al 
  0.7735397  0.5137679  0.7396664

 Al 
  0.7425845  0.7427640  0.4938642

