32 
charge = 0 
 Al 
  0.9935387  0.9846468  0.0021459

 Al 
  0.0132865  0.2708406  0.2438407

 Al 
  0.2533092  0.9857198  0.2602780

 Al 
  0.2610564  0.2621987  0.9997760

 Al 
  0.4880266  0.9881429  0.0030036

 Al 
  0.5000619  0.2368410  0.2295864

 Al 
  0.7288191  0.0046173  0.2333659

 Al 
  0.7607928  0.2525976  0.9949730

 Al 
  0.9986993  0.4979147  0.0005854

 Al 
  0.9802398  0.7495421  0.2461066

 Al 
  0.2489431  0.5149114  0.2556717

 Al 
  0.2416947  0.7488973  0.0133422

 Al 
  0.0001225  0.9849401  0.5144943

 Al 
  0.9814378  0.2604562  0.7572237

 Al 
  0.2583177  0.0167504  0.7633496

 Al 
  0.2248094  0.2622519  0.4966499

 Al 
  0.9966474  0.5158012  0.4971821

 Al 
  0.0059948  0.7576481  0.7604017

 Al 
  0.2514133  0.4987723  0.7457972

 Al 
  0.2574303  0.7543983  0.5044614

 Al 
  0.5133966  0.4995112  0.9980397

 Al 
  0.4999530  0.7285382  0.2549614

 Al 
  0.7482080  0.5037869  0.2433988

 Al 
  0.7428877  0.7468356  0.9895946

 Al 
  0.5071581  0.9975509  0.5122506

 Al 
  0.5055505  0.2520370  0.7497314

 Al 
  0.7509616  0.0054081  0.7727835

 Al 
  0.7590750  0.2357928  0.4924744

 Al 
  0.5053512  0.4767400  0.4805393

 Al 
  0.4979803  0.7430573  0.7548290

 Al 
  0.7803883  0.5175660  0.7393483

 Al 
  0.7444471  0.7452898  0.4898149

