32 
charge = 0 
 Al 
  0.9921922  0.9838374  0.0012834

 Al 
  0.0129994  0.2691562  0.2451822

 Al 
  0.2533587  0.9844414  0.2605713

 Al 
  0.2639845  0.2619957  0.9993515

 Al 
  0.4889906  0.9900710  0.0020816

 Al 
  0.4996065  0.2365427  0.2308128

 Al 
  0.7263217  0.0004406  0.2323041

 Al 
  0.7605292  0.2525655  0.9937169

 Al 
  0.9995347  0.4982402  0.9986869

 Al 
  0.9805950  0.7490124  0.2453827

 Al 
  0.2467155  0.5163569  0.2562794

 Al 
  0.2407406  0.7482266  0.0158990

 Al 
  0.0016076  0.9828585  0.5161007

 Al 
  0.9838919  0.2573103  0.7584674

 Al 
  0.2557720  0.0202292  0.7650809

 Al 
  0.2235434  0.2636305  0.4984518

 Al 
  0.9986548  0.5144535  0.4961413

 Al 
  0.0111801  0.7577410  0.7590763

 Al 
  0.2517239  0.4985929  0.7461623

 Al 
  0.2568994  0.7547498  0.5005866

 Al 
  0.5126863  0.5003799  0.9991127

 Al 
  0.4949470  0.7264492  0.2526422

 Al 
  0.7494926  0.5058079  0.2427491

 Al 
  0.7409448  0.7459049  0.9901997

 Al 
  0.5061606  0.9975509  0.5086369

 Al 
  0.5033798  0.2521063  0.7524863

 Al 
  0.7492216  0.0083597  0.7712291

 Al 
  0.7616690  0.2374276  0.4903879

 Al 
  0.5127184  0.4755866  0.4841233

 Al 
  0.4938097  0.7443852  0.7584080

 Al 
  0.7809453  0.5186612  0.7398322

 Al 
  0.7451797  0.7469271  0.4885699

