32 
charge = 0 
 Al 
  0.9932429  0.9844315  0.0019405

 Al 
  0.0132654  0.2705559  0.2441203

 Al 
  0.2533451  0.9854277  0.2603460

 Al 
  0.2616776  0.2621603  0.9996894

 Al 
  0.4882110  0.9885327  0.0028315

 Al 
  0.4999814  0.2367383  0.2297869

 Al 
  0.7282610  0.0038228  0.2331234

 Al 
  0.7607779  0.2525754  0.9946871

 Al 
  0.9988466  0.4979506  0.0002129

 Al 
  0.9802819  0.7494196  0.2459556

 Al 
  0.2485087  0.5152332  0.2558091

 Al 
  0.2414880  0.7487761  0.0138966

 Al 
  0.0004245  0.9845032  0.5148446

 Al 
  0.9818524  0.2598559  0.7575009

 Al 
  0.2578449  0.0174682  0.7637184

 Al 
  0.2245099  0.2625613  0.4969890

 Al 
  0.9970249  0.5155388  0.4969853

 Al 
  0.0070096  0.7576778  0.7601455

 Al 
  0.2514715  0.4987204  0.7458505

 Al 
  0.2573326  0.7544936  0.5036681

 Al 
  0.5132902  0.4996918  0.9982748

 Al 
  0.4989444  0.7280630  0.2545146

 Al 
  0.7484469  0.5042312  0.2432701

 Al 
  0.7424806  0.7466474  0.9896886

 Al 
  0.5069712  0.9975447  0.5115465

 Al 
  0.5051012  0.2520321  0.7502871

 Al 
  0.7506312  0.0060232  0.7725286

 Al 
  0.7595961  0.2360985  0.4920635

 Al 
  0.5068289  0.4764950  0.4812101

 Al 
  0.4971548  0.7433283  0.7555554

 Al 
  0.7805975  0.5178060  0.7394201

 Al 
  0.7446005  0.7455943  0.4895451

