32 
charge = 0 
 Al 
  0.9929607  0.9842421  0.0017512

 Al 
  0.0132258  0.2702440  0.2443963

 Al 
  0.2533674  0.9851530  0.2604091

 Al 
  0.2622840  0.2621207  0.9996015

 Al 
  0.4884003  0.9889226  0.0026521

 Al 
  0.4998960  0.2366566  0.2300109

 Al 
  0.7277301  0.0030060  0.2328956

 Al 
  0.7607433  0.2525605  0.9944161

 Al 
  0.9990038  0.4980026  0.9998342

 Al 
  0.9803376  0.7493045  0.2458071

 Al 
  0.2480657  0.5155401  0.2559378

 Al 
  0.2412876  0.7486473  0.0144312

 Al 
  0.0007252  0.9840738  0.5151812

 Al 
  0.9823066  0.2592384  0.7577645

 Al 
  0.2573536  0.0181773  0.7640773

 Al 
  0.2242315  0.2628558  0.4973392

 Al 
  0.9974160  0.5152715  0.4967811

 Al 
  0.0080392  0.7577026  0.7598832

 Al 
  0.2515321  0.4986770  0.7459136

 Al 
  0.2572311  0.7545765  0.5028810

 Al 
  0.5131664  0.4998713  0.9985013

 Al 
  0.4979357  0.7276150  0.2540567

 Al 
  0.7486956  0.5046582  0.2431402

 Al 
  0.7420796  0.7464606  0.9897988

 Al 
  0.5067781  0.9975410  0.5108287

 Al 
  0.5046569  0.2520358  0.7508428

 Al 
  0.7502896  0.0066296  0.7722452

 Al 
  0.7601171  0.2364165  0.4916477

 Al 
  0.5083102  0.4762549  0.4819056

 Al 
  0.4963232  0.7435981  0.7562794

 Al 
  0.7807571  0.5180375  0.7395055

 Al 
  0.7447515  0.7459111  0.4892852

