32 
charge = 0 
 Al 
  0.9941649  0.9851530  0.0025989

 Al 
  0.0132691  0.2713244  0.2432813

 Al 
  0.2532040  0.9863447  0.2601356

 Al 
  0.2597829  0.2622692  0.9999468

 Al 
  0.4876788  0.9873645  0.0033303

 Al 
  0.5002030  0.2371046  0.2292523

 Al 
  0.7300097  0.0061284  0.2338906

 Al 
  0.7607656  0.2526632  0.9955869

 Al 
  0.9984370  0.4978875  0.0013106

 Al 
  0.9801978  0.7498069  0.2464148

 Al 
  0.2497896  0.5142406  0.2553710

 Al 
  0.2421316  0.7491151  0.0121888

 Al 
  0.9995161  0.9858349  0.5137605

 Al 
  0.9807336  0.2615960  0.7566333

 Al 
  0.2591951  0.0153012  0.7625885

 Al 
  0.2254666  0.2615910  0.4960113

 Al 
  0.9959396  0.5163024  0.4975521

 Al 
  0.0040258  0.7575776  0.7608918

 Al 
  0.2513032  0.4988936  0.7457230

 Al 
  0.2576073  0.7541817  0.5060529

 Al 
  0.5135525  0.4991448  0.9975422

 Al 
  0.5019529  0.7295641  0.2558153

 Al 
  0.7477650  0.5028464  0.2436525

 Al 
  0.7437181  0.7472043  0.9894547

 Al 
  0.5075095  0.9975694  0.5136119

 Al 
  0.5064588  0.2520791  0.7486325

 Al 
  0.7515940  0.0041582  0.7732043

 Al 
  0.7580404  0.2352260  0.4932776

 Al 
  0.5024281  0.4772412  0.4792869

 Al 
  0.4996027  0.7425090  0.7533773

 Al 
  0.7798215  0.5170548  0.7392456

 Al 
  0.7441364  0.7447243  0.4903767

