32 
charge = 0 
 Al 
  0.9905475  0.9842310  0.0008490

 Al 
  0.0113744  0.2641416  0.2468925

 Al 
  0.2523662  0.9837075  0.2605960

 Al 
  0.2677850  0.2616665  0.9990731

 Al 
  0.4909039  0.9934681  0.9999369

 Al 
  0.4984233  0.2375427  0.2347248

 Al 
  0.7238008  0.9914707  0.2313982

 Al 
  0.7587718  0.2531533  0.9928506

 Al 
  0.0018192  0.4996374  0.9951017

 Al 
  0.9823078  0.7487216  0.2443122

 Al 
  0.2422999  0.5173110  0.2569687

 Al 
  0.2395240  0.7467440  0.0188580

 Al 
  0.0041966  0.9799824  0.5178914

 Al 
  0.9909287  0.2507128  0.7598609

 Al 
  0.2498676  0.0256708  0.7673370

 Al 
  0.2231635  0.2648619  0.5024219

 Al 
  0.0029157  0.5119474  0.4940783

 Al 
  0.0212774  0.7573140  0.7564861

 Al 
  0.2524974  0.4989159  0.7475137

 Al 
  0.2557151  0.7543488  0.4943852

 Al 
  0.5100725  0.5015494  0.0003205

 Al 
  0.4864079  0.7245768  0.2480880

 Al 
  0.7524343  0.5080318  0.2414175

 Al 
  0.7381974  0.7444025  0.9919101

 Al 
  0.5038439  0.9978306  0.5016608

 Al 
  0.5000644  0.2528241  0.7571717

 Al 
  0.7454099  0.0126578  0.7662913

 Al 
  0.7664868  0.2409039  0.4864524

 Al 
  0.5258081  0.4742674  0.4922021

 Al 
  0.4857631  0.7468096  0.7644325

 Al 
  0.7788166  0.5199099  0.7414534

 Al 
  0.7462106  0.7506856  0.4870638

