32 
charge = 0 
 Al 
  0.9904534  0.9844092  0.0008923

 Al 
  0.0111628  0.2635377  0.2469630

 Al 
  0.2521806  0.9837916  0.2605403

 Al 
  0.2679793  0.2616467  0.9991201

 Al 
  0.4910759  0.9937676  0.9997104

 Al 
  0.4982946  0.2377481  0.2352087

 Al 
  0.7237265  0.9905809  0.2313945

 Al 
  0.7585268  0.2532573  0.9928914

 Al 
  0.0020828  0.4998057  0.9947812

 Al 
  0.9825442  0.7487538  0.2442391

 Al 
  0.2418791  0.5172207  0.2570021

 Al 
  0.2394473  0.7466091  0.0189755

 Al 
  0.0044193  0.9798129  0.5179546

 Al 
  0.9917318  0.2500743  0.7599314

 Al 
  0.2492537  0.0260717  0.7674608

 Al 
  0.2233008  0.2648644  0.5028204

 Al 
  0.0033179  0.5117358  0.4939025

 Al 
  0.0222093  0.7572138  0.7562509

 Al 
  0.2525865  0.4989976  0.7476845

 Al 
  0.2556012  0.7542201  0.4939137

 Al 
  0.5097384  0.5016113  0.0003725

 Al 
  0.4857210  0.7245520  0.2476796

 Al 
  0.7527363  0.5081184  0.2412826

 Al 
  0.7380229  0.7442948  0.9920846

 Al 
  0.5035951  0.9978825  0.5010297

 Al 
  0.4998243  0.2529256  0.7575467

 Al 
  0.7450213  0.0129461  0.7656812

 Al 
  0.7669373  0.2412294  0.4860985

 Al 
  0.5269343  0.4742377  0.4930325

 Al 
  0.4850045  0.7470435  0.7649201

 Al 
  0.7784157  0.5199644  0.7416415

 Al 
  0.7462762  0.7510730  0.4869932

