32 
charge = 0 
 Al 
  0.9910438  0.9837632  0.0008217

 Al 
  0.0121479  0.2663767  0.2464185

 Al 
  0.2529479  0.9836679  0.2607024

 Al 
  0.2666576  0.2617705  0.9990397

 Al 
  0.4901738  0.9922009  0.0008255

 Al 
  0.4989233  0.2369029  0.2329538

 Al 
  0.7244072  0.9950634  0.2315653

 Al 
  0.7596418  0.2528167  0.9929137

 Al 
  0.0008267  0.4990000  0.9964606

 Al 
  0.9814774  0.7487055  0.2446698

 Al 
  0.2440250  0.5173123  0.2567719

 Al 
  0.2399027  0.7473232  0.0180622

 Al 
  0.0032387  0.9808846  0.5174286

 Al 
  0.9878682  0.2533229  0.7594661

 Al 
  0.2522957  0.0237983  0.7666539

 Al 
  0.2229395  0.2646317  0.5008217

 Al 
  0.0012438  0.5128719  0.4948517

 Al 
  0.0173902  0.7576036  0.7574774

 Al 
  0.2521645  0.4986733  0.7468912

 Al 
  0.2561866  0.7547003  0.4965460

 Al 
  0.5112841  0.5011967  0.9999926

 Al 
  0.4894770  0.7249592  0.2498243

 Al 
  0.7512314  0.5074464  0.2419546

 Al 
  0.7390797  0.7449173  0.9912009

 Al 
  0.5048067  0.9976684  0.5043228

 Al 
  0.5011930  0.2524652  0.7554911

 Al 
  0.7469556  0.0112457  0.7685263

 Al 
  0.7646367  0.2395438  0.4879474

 Al 
  0.5209606  0.4745891  0.4889065

 Al 
  0.4888817  0.7458690  0.7622667

 Al 
  0.7801124  0.5195646  0.7407356

 Al 
  0.7458802  0.7491461  0.4874920

