32 
charge = 0 
 Al 
  0.9911997  0.9837087  0.0008552

 Al 
  0.0123199  0.2668903  0.2462527

 Al 
  0.2530543  0.9837298  0.2607024

 Al 
  0.2662900  0.2618039  0.9990656

 Al 
  0.4899819  0.9918655  0.0010433

 Al 
  0.4990434  0.2367903  0.2325516

 Al 
  0.7246411  0.9959668  0.2316469

 Al 
  0.7598275  0.2527523  0.9929892

 Al 
  0.0005928  0.4988528  0.9968182

 Al 
  0.9812992  0.7487290  0.2447738

 Al 
  0.2444669  0.5172281  0.2567064

 Al 
  0.2400191  0.7474729  0.0177813

 Al 
  0.0029825  0.9811643  0.5172590

 Al 
  0.9871454  0.2539862  0.7593362

 Al 
  0.2528934  0.0232637  0.7664373

 Al 
  0.2229642  0.2645191  0.5004208

 Al 
  0.0008143  0.5131231  0.4950609

 Al 
  0.0163804  0.7576494  0.7577360

 Al 
  0.2520853  0.4986362  0.7467514

 Al 
  0.2563066  0.7547485  0.4971561

 Al 
  0.5115551  0.5010841  0.9998787

 Al 
  0.4903223  0.7251287  0.2502809

 Al 
  0.7509344  0.5072373  0.2420870

 Al 
  0.7393471  0.7450658  0.9910240

 Al 
  0.5050406  0.9976387  0.5050196

 Al 
  0.5015173  0.2523873  0.7550270

 Al 
  0.7473405  0.0108262  0.7690337

 Al 
  0.7641590  0.2391924  0.4883397

 Al 
  0.5196624  0.4747166  0.4880909

 Al 
  0.4896849  0.7456302  0.7616715

 Al 
  0.7803512  0.5194471  0.7405673

 Al 
  0.7457799  0.7487662  0.4876368

