32 
charge = 0 
 Al 
  0.9903693  0.9846109  0.0009504

 Al 
  0.0109462  0.2629140  0.2470125

 Al 
  0.2519789  0.9839067  0.2604735

 Al 
  0.2681402  0.2616306  0.9991844

 Al 
  0.4912442  0.9940622  0.9994815

 Al 
  0.4981647  0.2379709  0.2357086

 Al 
  0.7236820  0.9896961  0.2314056

 Al 
  0.7582706  0.2533686  0.9929558

 Al 
  0.0023501  0.4999777  0.9944669

 Al 
  0.9827917  0.7487959  0.2441711

 Al 
  0.2414608  0.5170932  0.2570281

 Al 
  0.2393780  0.7464779  0.0190609

 Al 
  0.0046359  0.9796656  0.5179942

 Al 
  0.9925474  0.2494431  0.7599933

 Al 
  0.2486399  0.0264442  0.7675672

 Al 
  0.2234716  0.2648458  0.5032164

 Al 
  0.0037114  0.5115341  0.4937342

 Al 
  0.0231251  0.7571011  0.7560207

 Al 
  0.2526768  0.4990879  0.7478590

 Al 
  0.2554898  0.7540753  0.4934706

 Al 
  0.5093919  0.5016633  0.0004133

 Al 
  0.4850676  0.7245557  0.2472823

 Al 
  0.7530395  0.5081815  0.2411465

 Al 
  0.7378657  0.7441946  0.9922578

 Al 
  0.5033439  0.9979382  0.5004109

 Al 
  0.4995978  0.2530296  0.7579043

 Al 
  0.7446327  0.0132097  0.7650500

 Al 
  0.7673840  0.2415487  0.4857532

 Al 
  0.5280271  0.4742278  0.4938654

 Al 
  0.4842533  0.7472786  0.7653866

 Al 
  0.7779862  0.5200077  0.7418346

 Al 
  0.7463356  0.7514628  0.4869375

