32 
charge = 0 
 Al 
  0.9901738  0.9853584  0.0012029

 Al 
  0.0102693  0.2609240  0.2470385

 Al 
  0.2512735  0.9844401  0.2601963

 Al 
  0.2684063  0.2615984  0.9994889

 Al 
  0.4917219  0.9949198  0.9987884

 Al 
  0.4977662  0.2387369  0.2373125

 Al 
  0.7237191  0.9870625  0.2315269

 Al 
  0.7574415  0.2537436  0.9932788

 Al 
  0.0031892  0.5005012  0.9935696

 Al 
  0.9836023  0.7489889  0.2440040

 Al 
  0.2402257  0.5164769  0.2570628

 Al 
  0.2392047  0.7461153  0.0191265

 Al 
  0.0052497  0.9793599  0.5179867

 Al 
  0.9950658  0.2475892  0.7601270

 Al 
  0.2467922  0.0273996  0.7677801

 Al 
  0.2241882  0.2646577  0.5043971

 Al 
  0.0048438  0.5109759  0.4932850

 Al 
  0.0257834  0.7566927  0.7553611

 Al 
  0.2529615  0.4994010  0.7484184

 Al 
  0.2551681  0.7535431  0.4923011

 Al 
  0.5082830  0.5017524  0.0004703

 Al 
  0.4833003  0.7247265  0.2461598

 Al 
  0.7539503  0.5082360  0.2407331

 Al 
  0.7375019  0.7439434  0.9927565

 Al 
  0.5025630  0.9981362  0.4986300

 Al 
  0.4990100  0.2533649  0.7588708

 Al 
  0.7434632  0.0138557  0.7630278

 Al 
  0.7687119  0.2424620  0.4847607

 Al 
  0.5311148  0.4743367  0.4963876

 Al 
  0.4820355  0.7479989  0.7666638

 Al 
  0.7765408  0.5200671  0.7424298

 Al 
  0.7464754  0.7526348  0.4868571

