32 
charge = 0 
 Al 
  0.9900092  0.9875006  0.0020185

 Al 
  0.0088312  0.2563252  0.2465249

 Al 
  0.2493812  0.9864017  0.2592570

 Al 
  0.2679471  0.2615910  0.0006510

 Al 
  0.4925734  0.9965930  0.9973788

 Al 
  0.4969321  0.2406972  0.2410351

 Al 
  0.7245000  0.9818895  0.2321494

 Al 
  0.7555294  0.2546668  0.9944829

 Al 
  0.0050245  0.5015531  0.9919360

 Al 
  0.9855564  0.7496597  0.2438332

 Al 
  0.2378187  0.5141107  0.2569006

 Al 
  0.2389708  0.7455695  0.0184310

 Al 
  0.0063289  0.9793847  0.5173655

 Al 
  0.0003663  0.2440993  0.7602421

 Al 
  0.2431179  0.0285382  0.7677553

 Al 
  0.2266138  0.2636837  0.5067138

 Al 
  0.0068623  0.5100540  0.4926749

 Al 
  0.0307274  0.7555282  0.7541681

 Al 
  0.2535877  0.5001782  0.7496770

 Al 
  0.2546087  0.7520370  0.4906292

 Al 
  0.5057460  0.5016410  0.0003304

 Al 
  0.4806247  0.7257747  0.2442268

 Al 
  0.7557906  0.5077744  0.2398730

 Al 
  0.7372284  0.7436600  0.9936426

 Al 
  0.5008440  0.9986783  0.4953604

 Al 
  0.4981833  0.2541149  0.7603510

 Al 
  0.7410982  0.0145352  0.7583436

 Al 
  0.7713987  0.2440733  0.4829674

 Al 
  0.5365168  0.4752289  0.5015705

 Al 
  0.4776954  0.7495891  0.7686810

 Al 
  0.7729877  0.5198555  0.7437305

 Al 
  0.7466004  0.7550158  0.4870972

