32 
charge = 0 
 Al 
  0.9902294  0.9850861  0.0011064

 Al 
  0.0104982  0.2616083  0.2470509

 Al 
  0.2515259  0.9842297  0.2603027

 Al 
  0.2683531  0.2616071  0.9993676

 Al 
  0.4915672  0.9946376  0.9990211

 Al 
  0.4978999  0.2384647  0.2367606

 Al 
  0.7236795  0.9879362  0.2314725

 Al 
  0.7577273  0.2536112  0.9931489

 Al 
  0.0029046  0.5003255  0.9938617

 Al 
  0.9833214  0.7489134  0.2440535

 Al 
  0.2406354  0.5167219  0.2570591

 Al 
  0.2392580  0.7462304  0.0191352

 Al 
  0.0050505  0.9794391  0.5180115

 Al 
  0.9942144  0.2482006  0.7600898

 Al 
  0.2474085  0.0271088  0.7677268

 Al 
  0.2239147  0.2647418  0.5040048

 Al 
  0.0044750  0.5111542  0.4934261

 Al 
  0.0249121  0.7568412  0.7555752

 Al 
  0.2528650  0.4992896  0.7482266

 Al 
  0.2552733  0.7537374  0.4926650

 Al 
  0.5086642  0.5017338  0.0004616

 Al 
  0.4838572  0.7246436  0.2465224

 Al 
  0.7536459  0.5082397  0.2408717

 Al 
  0.7376058  0.7440189  0.9925932

 Al 
  0.5028278  0.9980657  0.4992117

 Al 
  0.4991919  0.2532498  0.7585664

 Al 
  0.7438530  0.0136639  0.7637246

 Al 
  0.7682701  0.2421650  0.4850837

 Al 
  0.5301161  0.4742773  0.4955423

 Al 
  0.4827694  0.7477551  0.7662579

 Al 
  0.7770482  0.5200584  0.7422281

 Al 
  0.7464346  0.7522425  0.4868695

