32 
charge = 0 
 Al 
  0.9900079  0.9879424  0.0021880

 Al 
  0.0085862  0.2554688  0.2463653

 Al 
  0.2490000  0.9868509  0.2590453

 Al 
  0.2677355  0.2615922  0.0009232

 Al 
  0.4927021  0.9968752  0.9971449

 Al 
  0.4967873  0.2410784  0.2417281

 Al 
  0.7247154  0.9810405  0.2323029

 Al 
  0.7551792  0.2548389  0.9947527

 Al 
  0.0053512  0.5017214  0.9916823

 Al 
  0.9859277  0.7498069  0.2438258

 Al 
  0.2374264  0.5135612  0.2568388

 Al 
  0.2389411  0.7455076  0.0182120

 Al 
  0.0064910  0.9794750  0.5171786

 Al 
  0.0012722  0.2435548  0.7602495

 Al 
  0.2425177  0.0286199  0.7676959

 Al 
  0.2271571  0.2634424  0.5070912

 Al 
  0.0071642  0.5099215  0.4926167

 Al 
  0.0315059  0.7552893  0.7539850

 Al 
  0.2537003  0.5003193  0.7499035

 Al 
  0.2545295  0.7517289  0.4904324

 Al 
  0.5052832  0.5015841  0.0002785

 Al 
  0.4802881  0.7260396  0.2439471

 Al 
  0.7560987  0.5076259  0.2397245

 Al 
  0.7372383  0.7436414  0.9937713

 Al 
  0.5005309  0.9987884  0.4948480

 Al 
  0.4980867  0.2542486  0.7605403

 Al 
  0.7407010  0.0145723  0.7574749

 Al 
  0.7718591  0.2443109  0.4826939

 Al 
  0.5373224  0.4754752  0.5024553

 Al 
  0.4769789  0.7498849  0.7689483

 Al 
  0.7723170  0.5197750  0.7439656

 Al 
  0.7466029  0.7554156  0.4871912

