32 
charge = 0 
 Al 
  0.9900648  0.9899535  0.0029442

 Al 
  0.0076122  0.2517870  0.2455175

 Al 
  0.2472959  0.9889956  0.2580293

 Al 
  0.2664955  0.2615922  0.0022449

 Al 
  0.4931860  0.9980335  0.9962304

 Al 
  0.4961957  0.2427553  0.2447131

 Al 
  0.7257982  0.9777276  0.2330491

 Al 
  0.7536941  0.2555703  0.9960039

 Al 
  0.0066977  0.5023588  0.9907170

 Al 
  0.9875476  0.7504901  0.2438679

 Al 
  0.2358992  0.5109066  0.2564725

 Al 
  0.2388483  0.7453629  0.0170623

 Al 
  0.0070863  0.9800876  0.5161861

 Al 
  0.0048946  0.2415276  0.7602668

 Al 
  0.2402059  0.0286025  0.7673123

 Al 
  0.2297436  0.2622618  0.5085577

 Al 
  0.0082508  0.5094327  0.4925288

 Al 
  0.0344575  0.7542077  0.7532833

 Al 
  0.2541632  0.5008898  0.7508465

 Al 
  0.2542634  0.7503341  0.4898681

 Al 
  0.5033303  0.5012524  0.0000012

 Al 
  0.4792659  0.7273501  0.2429533

 Al 
  0.7573276  0.5068388  0.2391280

 Al 
  0.7374301  0.7436501  0.9942119

 Al 
  0.4991857  0.9992896  0.4928902

 Al 
  0.4978021  0.2548067  0.7611405

 Al 
  0.7391156  0.0145079  0.7537523

 Al 
  0.7737426  0.2451648  0.4816754

 Al 
  0.5402567  0.4767536  0.5060356

 Al 
  0.4741399  0.7511732  0.7697998

 Al 
  0.7694421  0.5193196  0.7449743

 Al 
  0.7465596  0.7570170  0.4877320

