32 
charge = 0 
 Al 
  0.9901304  0.9910920  0.0033526

 Al 
  0.0071383  0.2498045  0.2449755

 Al 
  0.2463442  0.9902666  0.2574217

 Al 
  0.2656403  0.2615762  0.0030407

 Al 
  0.4934050  0.9986325  0.9958010

 Al 
  0.4958975  0.2436785  0.2463232

 Al 
  0.7264603  0.9761460  0.2334983

 Al 
  0.7529120  0.2559477  0.9967205

 Al 
  0.0073833  0.5026422  0.9902666

 Al 
  0.9884325  0.7508787  0.2439310

 Al 
  0.2351777  0.5093201  0.2562163

 Al 
  0.2388137  0.7453591  0.0163420

 Al 
  0.0073499  0.9805468  0.5155438

 Al 
  0.0066630  0.2406366  0.7602742

 Al 
  0.2391379  0.0283686  0.7670412

 Al 
  0.2312819  0.2615489  0.5092495

 Al 
  0.0087149  0.5092075  0.4925796

 Al 
  0.0358163  0.7536038  0.7529516

 Al 
  0.2544032  0.5011621  0.7513316

 Al 
  0.2541669  0.7495508  0.4897146

 Al 
  0.5023068  0.5010284  0.9998305

 Al 
  0.4789466  0.7281471  0.2425375

 Al 
  0.7579315  0.5063363  0.2388335

 Al 
  0.7376132  0.7437020  0.9943778

 Al 
  0.4984592  0.9995743  0.4919732

 Al 
  0.4977192  0.2550950  0.7613435

 Al 
  0.7383384  0.0143495  0.7517611

 Al 
  0.7747042  0.2455274  0.4812212

 Al 
  0.5415326  0.4775717  0.5078251

 Al 
  0.4727526  0.7518860  0.7700869

 Al 
  0.7679137  0.5190090  0.7455250

 Al 
  0.7465101  0.7578016  0.4881070

