32 
charge = 0 
 Al 
  0.9903161  0.9935721  0.0041830

 Al 
  0.0062410  0.2456524  0.2437033

 Al 
  0.2443060  0.9931315  0.2560232

 Al 
  0.2634993  0.2614871  0.0048562

 Al 
  0.4937961  0.9998688  0.9950436

 Al 
  0.4953072  0.2456574  0.2497092

 Al 
  0.7279701  0.9732476  0.2345268

 Al 
  0.7513069  0.2566915  0.9982810

 Al 
  0.0087310  0.5031075  0.9894436

 Al 
  0.9903247  0.7517091  0.2441439

 Al 
  0.2338758  0.5057138  0.2555591

 Al 
  0.2387691  0.7455114  0.0146911

 Al 
  0.0078078  0.9817460  0.5139882

 Al 
  0.0099550  0.2392060  0.7603015

 Al 
  0.2372865  0.0274170  0.7663717

 Al 
  0.2347941  0.2599265  0.5104995

 Al 
  0.0094599  0.5087768  0.4928853

 Al 
  0.0382060  0.7523105  0.7523217

 Al 
  0.2548896  0.5016249  0.7522858

 Al 
  0.2540679  0.7478553  0.4896416

 Al 
  0.5002252  0.5004888  0.9994555

 Al 
  0.4786892  0.7299762  0.2418853

 Al 
  0.7590874  0.5051483  0.2382815

 Al 
  0.7381343  0.7439001  0.9945745

 Al 
  0.4969098  0.0001943  0.4902926

 Al 
  0.4976573  0.2556717  0.7615576

 Al 
  0.7368596  0.0137926  0.7476177

 Al 
  0.7766237  0.2461128  0.4804403

 Al 
  0.5436290  0.4795406  0.5112928

 Al 
  0.4701191  0.7534379  0.7703505

 Al 
  0.7647889  0.5182355  0.7467291

 Al 
  0.7463640  0.7592904  0.4890649

