32 
charge = 0 
 Al 
  0.9906131  0.9968442  0.0051136

 Al 
  0.0052559  0.2404176  0.2419051

 Al 
  0.2416972  0.9970472  0.2540233

 Al 
  0.2602148  0.2612086  0.0073845

 Al 
  0.4941822  0.0014467  0.9943827

 Al 
  0.4946315  0.2482761  0.2540357

 Al 
  0.7300616  0.9703715  0.2359623

 Al 
  0.7493317  0.2574947  0.0003131

 Al 
  0.0102322  0.5034516  0.9886033

 Al 
  0.9928197  0.7527400  0.2445572

 Al 
  0.2326308  0.5007153  0.2545146

 Al 
  0.2387704  0.7460039  0.0124734

 Al 
  0.0082409  0.9836704  0.5116529

 Al 
  0.0132877  0.2382568  0.7603584

 Al 
  0.2357272  0.0253280  0.7653817

 Al 
  0.2397542  0.2576865  0.5117073

 Al 
  0.0100131  0.5082385  0.4936365

 Al 
  0.0403619  0.7506621  0.7515816

 Al 
  0.2554849  0.5019467  0.7533550

 Al 
  0.2541446  0.7456277  0.4899015

 Al 
  0.4977018  0.4997277  0.9990100

 Al 
  0.4790060  0.7325417  0.2414150

 Al 
  0.7603621  0.5034379  0.2377283

 Al 
  0.7390216  0.7442911  0.9945213

 Al 
  0.4948641  0.0010123  0.4885612

 Al 
  0.4977439  0.2563326  0.7614821

 Al 
  0.7352718  0.0127085  0.7424360

 Al 
  0.7788798  0.2465757  0.4797572

 Al 
  0.5452490  0.4824947  0.5151243

 Al 
  0.4672850  0.7555468  0.7700597

 Al 
  0.7610403  0.5170350  0.7484320

 Al 
  0.7461202  0.7608608  0.4906279

