32 
charge = 0 
 Al 
  0.9908569  0.9993886  0.0056507

 Al 
  0.0045740  0.2364858  0.2404609

 Al 
  0.2397530  0.0001733  0.2523266

 Al 
  0.2573264  0.2608101  0.0094327

 Al 
  0.4944099  0.0026991  0.9941439

 Al 
  0.4941810  0.2503948  0.2573647

 Al 
  0.7317670  0.9688394  0.2371442

 Al 
  0.7478627  0.2579538  0.0018687

 Al 
  0.0111777  0.5035246  0.9881144

 Al 
  0.9948332  0.7534565  0.2449866

 Al 
  0.2320145  0.4966573  0.2535716

 Al 
  0.2388248  0.7466202  0.0108064

 Al 
  0.0084909  0.9854277  0.5096035

 Al 
  0.0151181  0.2382531  0.7604067

 Al 
  0.2351938  0.0230273  0.7645451

 Al 
  0.2439062  0.2558784  0.5123373

 Al 
  0.0101517  0.5077830  0.4944916

 Al 
  0.0412777  0.7494295  0.7510037

 Al 
  0.2559329  0.5019256  0.7540283

 Al 
  0.2543748  0.7438778  0.4902814

 Al 
  0.4958604  0.4991362  0.9987525

 Al 
  0.4796631  0.7346517  0.2413036

 Al 
  0.7611938  0.5020160  0.2374561

 Al 
  0.7398594  0.7446909  0.9942255

 Al 
  0.4932095  0.0016460  0.4875192

 Al 
  0.4979110  0.2567559  0.7611900

 Al 
  0.7342916  0.0116158  0.7385600

 Al 
  0.7804490  0.2467526  0.4794676

 Al 
  0.5456747  0.4851096  0.5175536

 Al 
  0.4655364  0.7572806  0.7693419

 Al 
  0.7584117  0.5159559  0.7499468

 Al 
  0.7459136  0.7617828  0.4921143

