32 
charge = 0 
 Al 
  0.9907975  0.9987674  0.0055393

 Al 
  0.0047374  0.2374350  0.2408148

 Al 
  0.2402195  0.9994035  0.2527536

 Al 
  0.2580590  0.2609264  0.0089278

 Al 
  0.4943592  0.0023885  0.9941785

 Al 
  0.4942837  0.2498663  0.2565517

 Al 
  0.7313437  0.9691538  0.2368497

 Al 
  0.7482179  0.2578585  0.0014913

 Al 
  0.0109660  0.5035233  0.9882209

 Al 
  0.9943320  0.7532907  0.2448728

 Al 
  0.2321358  0.4976622  0.2538117

 Al 
  0.2388062  0.7464494  0.0112049

 Al 
  0.0084352  0.9849760  0.5101245

 Al 
  0.0147344  0.2381912  0.7603955

 Al 
  0.2352668  0.0236486  0.7647555

 Al 
  0.2428655  0.2563252  0.5122086

 Al 
  0.0101406  0.5079006  0.4942589

 Al 
  0.0411205  0.7497265  0.7511485

 Al 
  0.2558240  0.5019566  0.7538773

 Al 
  0.2543030  0.7443072  0.4901775

 Al 
  0.4963022  0.4992785  0.9988058

 Al 
  0.4794713  0.7341270  0.2413111

 Al 
  0.7610019  0.5023699  0.2375080

 Al 
  0.7396428  0.7445857  0.9943196

 Al 
  0.4936216  0.0014925  0.4877506

 Al 
  0.4978627  0.2566618  0.7612791

 Al 
  0.7345094  0.0119029  0.7394968

 Al 
  0.7800802  0.2467217  0.4795183

 Al 
  0.5456413  0.4844414  0.5170066

 Al 
  0.4659250  0.7568474  0.7695597

 Al 
  0.7590293  0.5162331  0.7495557

 Al 
  0.7459643  0.7615848  0.4917257

