32 
charge = 0 
 Al 
  0.9910215  0.0011707  0.0058772

 Al 
  0.0040976  0.2337991  0.2394473

 Al 
  0.2384597  0.0023996  0.2510408

 Al 
  0.2551136  0.2603918  0.0109017

 Al 
  0.4945411  0.0036248  0.9941426

 Al 
  0.4939112  0.2519702  0.2597124

 Al 
  0.7330206  0.9681674  0.2380179

 Al 
  0.7468479  0.2581630  0.0029466

 Al 
  0.0117049  0.5034714  0.9878645

 Al 
  0.9963269  0.7538909  0.2453530

 Al 
  0.2317794  0.4937144  0.2528427

 Al 
  0.2388978  0.7471957  0.0097074

 Al 
  0.0086394  0.9868175  0.5080169

 Al 
  0.0159782  0.2386800  0.7604252

 Al 
  0.2352074  0.0210039  0.7639176

 Al 
  0.2470113  0.2545728  0.5126145

 Al 
  0.0100973  0.5074105  0.4952552

 Al 
  0.0414608  0.7485941  0.7505619

 Al 
  0.2562497  0.5017326  0.7544020

 Al 
  0.2546384  0.7426241  0.4906106

 Al 
  0.4946129  0.4987414  0.9986523

 Al 
  0.4803302  0.7362024  0.2413544

 Al 
  0.7616974  0.5009727  0.2373731

 Al 
  0.7405388  0.7450287  0.9938642

 Al 
  0.4919794  0.0020816  0.4869375

 Al 
  0.4980805  0.2569885  0.7608646

 Al 
  0.7337421  0.0107099  0.7358992

 Al 
  0.7814502  0.2468009  0.4794020

 Al 
  0.5454928  0.4871591  0.5189409

 Al 
  0.4645723  0.7585714  0.7685424

 Al 
  0.7567299  0.5150995  0.7511732

 Al 
  0.7457675  0.7622494  0.4933357

