32 
charge = 0 
 Al 
  0.9911613  0.0028068  0.0059180

 Al 
  0.0036186  0.2313772  0.2385340

 Al 
  0.2373422  0.0044787  0.2497612

 Al 
  0.2529070  0.2598634  0.0122717

 Al 
  0.4946475  0.0045431  0.9942924

 Al 
  0.4937107  0.2535382  0.2619165

 Al 
  0.7342446  0.9678952  0.2388681

 Al 
  0.7459024  0.2582446  0.0039354

 Al 
  0.0120724  0.5033389  0.9877172

 Al 
  0.9978083  0.7542238  0.2457527

 Al 
  0.2317286  0.4909076  0.2521224

 Al 
  0.2390005  0.7478578  0.0087681

 Al 
  0.0087706  0.9882456  0.5064093

 Al 
  0.0164249  0.2394436  0.7604141

 Al 
  0.2355378  0.0187676  0.7632951

 Al 
  0.2500644  0.2533340  0.5127395

 Al 
  0.0099265  0.5070021  0.4961079

 Al 
  0.0412170  0.7478454  0.7500978

 Al 
  0.2565492  0.5013873  0.7546594

 Al 
  0.2549738  0.7414311  0.4909509

 Al 
  0.4934768  0.4984060  0.9986461

 Al 
  0.4811148  0.7377036  0.2415017

 Al 
  0.7621046  0.4999703  0.2374016

 Al 
  0.7412504  0.7453987  0.9933939

 Al 
  0.4907616  0.0024714  0.4865143

 Al 
  0.4982835  0.2571358  0.7604673

 Al 
  0.7333486  0.0097520  0.7334711

 Al 
  0.7822880  0.2467960  0.4794639

 Al 
  0.5449012  0.4892703  0.5199507

 Al 
  0.4639102  0.7598436  0.7675375

 Al 
  0.7553091  0.5142072  0.7524813

 Al 
  0.7456438  0.7625167  0.4946352

