32 
charge = 0 
 Al 
  0.9912009  0.0033167  0.0058871

 Al 
  0.0034528  0.2306309  0.2382568

 Al 
  0.2370130  0.0051346  0.2493367

 Al 
  0.2521756  0.2596604  0.0127011

 Al 
  0.4946785  0.0048488  0.9943753

 Al 
  0.4936600  0.2540604  0.2626207

 Al 
  0.7346468  0.9678902  0.2391466

 Al 
  0.7456005  0.2582434  0.0042448

 Al 
  0.0121591  0.5032783  0.9876912

 Al 
  0.9983008  0.7543104  0.2458925

 Al 
  0.2317509  0.4900042  0.2518873

 Al 
  0.2390414  0.7480966  0.0084922

 Al 
  0.0088127  0.9887295  0.5058710

 Al 
  0.0164880  0.2397678  0.7604005

 Al 
  0.2357123  0.0179793  0.7630885

 Al 
  0.2510680  0.2529380  0.5127506

 Al 
  0.0098460  0.5068561  0.4964098

 Al 
  0.0410400  0.7476152  0.7499356

 Al 
  0.2566457  0.5012376  0.7547201

 Al 
  0.2550988  0.7410462  0.4910623

 Al 
  0.4931204  0.4983095  0.9986684

 Al 
  0.4813994  0.7381912  0.2415710

 Al 
  0.7622197  0.4996473  0.2374375

 Al 
  0.7414942  0.7455312  0.9932132

 Al 
  0.4903569  0.0025890  0.4864066

 Al 
  0.4983590  0.2571667  0.7603200

 Al 
  0.7332521  0.0094240  0.7327125

 Al 
  0.7825318  0.2467861  0.4795134

 Al 
  0.5446154  0.4899881  0.5202044

 Al 
  0.4637567  0.7602619  0.7671576

 Al 
  0.7548908  0.5139003  0.7529380

 Al 
  0.7456091  0.7625613  0.4950856

