32 
charge = 0 
 Al 
  0.9912975  0.0047324  0.0056359

 Al 
  0.0029132  0.2285852  0.2375155

 Al 
  0.2361653  0.0069873  0.2480682

 Al 
  0.2500037  0.2589699  0.0138991

 Al 
  0.4947639  0.0057670  0.9947218

 Al 
  0.4935622  0.2556408  0.2646416

 Al 
  0.7358423  0.9681253  0.2399696

 Al 
  0.7447292  0.2581456  0.0051148

 Al 
  0.0123162  0.5030555  0.9876850

 Al 
  0.9997834  0.7544973  0.2463368

 Al 
  0.2319266  0.4873930  0.2512066

 Al 
  0.2391849  0.7488676  0.0077719

 Al 
  0.0089451  0.9902022  0.5042424

 Al 
  0.0164410  0.2409311  0.7603275

 Al 
  0.2364091  0.0154968  0.7624660

 Al 
  0.2540332  0.2517994  0.5126962

 Al 
  0.0095428  0.5063784  0.4973677

 Al 
  0.0402294  0.7469828  0.7494221

 Al 
  0.2569291  0.5006930  0.7548277

 Al 
  0.2555183  0.7399275  0.4913903

 Al 
  0.4921105  0.4980694  0.9988082

 Al 
  0.4823177  0.7396243  0.2418284

 Al 
  0.7625080  0.4987129  0.2376244

 Al 
  0.7422504  0.7459556  0.9926093

 Al 
  0.4891453  0.0029021  0.4861740

 Al 
  0.4986102  0.2571940  0.7598411

 Al 
  0.7330565  0.0084191  0.7305851

 Al 
  0.7831493  0.2467415  0.4797448

 Al 
  0.5434954  0.4921897  0.5207316

 Al 
  0.4634981  0.7615031  0.7658915

 Al 
  0.7537944  0.5129449  0.7543711

 Al 
  0.7455287  0.7625625  0.4964841

