32 
charge = 0 
 Al 
  0.9909138  0.9999975  0.0057448

 Al 
  0.0044131  0.2355626  0.2401131

 Al 
  0.2393037  0.0009294  0.2518984

 Al 
  0.2565900  0.2606826  0.0099314

 Al 
  0.4944570  0.0030098  0.9941265

 Al 
  0.4940832  0.2509220  0.2581630

 Al 
  0.7321890  0.9685696  0.2374375

 Al 
  0.7475162  0.2580380  0.0022375

 Al 
  0.0113720  0.5035172  0.9880204

 Al 
  0.9953332  0.7536112  0.2451042

 Al 
  0.2319155  0.4956636  0.2533290

 Al 
  0.2388458  0.7468021  0.0104240

 Al 
  0.0085429  0.9858856  0.5090775

 Al 
  0.0154534  0.2383558  0.7604153

 Al 
  0.2351604  0.0223788  0.7643359

 Al 
  0.2449446  0.2554366  0.5124474

 Al 
  0.0101480  0.5076617  0.4947354

 Al 
  0.0413866  0.7491411  0.7508589

 Al 
  0.2560405  0.5018786  0.7541656

 Al 
  0.2544540  0.7434533  0.4903879

 Al 
  0.4954309  0.4989988  0.9987092

 Al 
  0.4798710  0.7351728  0.2413086

 Al 
  0.7613732  0.5016645  0.2374165

 Al 
  0.7400822  0.7447998  0.9941179

 Al 
  0.4927974  0.0017957  0.4873076

 Al 
  0.4979642  0.2568425  0.7610910

 Al 
  0.7340899  0.0113200  0.7376479

 Al 
  0.7808005  0.2467761  0.4794317

 Al 
  0.5456611  0.4857854  0.5180585

 Al 
  0.4651812  0.7577125  0.7690993

 Al 
  0.7578226  0.5156737  0.7503465

 Al 
  0.7458628  0.7619610  0.4925115

