32 
charge = 0 
 Al 
  0.9912690  0.0042795  0.0057460

 Al 
  0.0031013  0.2292349  0.2377469

 Al 
  0.2364239  0.0063895  0.2484902

 Al 
  0.2507240  0.2592137  0.0135154

 Al 
  0.4947366  0.0054601  0.9945906

 Al 
  0.4935845  0.2551111  0.2639820

 Al 
  0.7354450  0.9680053  0.2396973

 Al 
  0.7450151  0.2581939  0.0048339

 Al 
  0.0122803  0.5031360  0.9876751

 Al 
  0.9992884  0.7544478  0.2461846

 Al 
  0.2318499  0.4882469  0.2514294

 Al 
  0.2391330  0.7486016  0.0079934

 Al 
  0.0089005  0.9897072  0.5047869

 Al 
  0.0164955  0.2405116  0.7603584

 Al 
  0.2361492  0.0163433  0.7626739

 Al 
  0.2530518  0.2521707  0.5127283

 Al 
  0.0096542  0.5065442  0.4970398

 Al 
  0.0405475  0.7471845  0.7495978

 Al 
  0.2568351  0.5008910  0.7548042

 Al 
  0.2553723  0.7402950  0.4912826

 Al 
  0.4924385  0.4981412  0.9987488

 Al 
  0.4820009  0.7391515  0.2417343

 Al 
  0.7624214  0.4990186  0.2375489

 Al 
  0.7419942  0.7458084  0.9928221

 Al 
  0.4895500  0.0028056  0.4862371

 Al 
  0.4985224  0.2571952  0.7600069

 Al 
  0.7331060  0.0087570  0.7312707

 Al 
  0.7829612  0.2467588  0.4796532

 Al 
  0.5439124  0.4914472  0.5205943

 Al 
  0.4635501  0.7610923  0.7663346

 Al 
  0.7541347  0.5132704  0.7538822

 Al 
  0.7455510  0.7625848  0.4960101

