32 
charge = 0 
 Al 
  0.9913593  0.0063351  0.0048995

 Al 
  0.0020469  0.2263168  0.2367729

 Al 
  0.2353881  0.0091691  0.2463851

 Al 
  0.2471660  0.2578387  0.0152468

 Al 
  0.4948678  0.0070133  0.9954086

 Al 
  0.4935733  0.2578041  0.2671427

 Al 
  0.7374326  0.9690077  0.2410499

 Al 
  0.7436191  0.2577917  0.0061482

 Al 
  0.0122865  0.5026719  0.9878484

 Al 
  0.0017932  0.7545678  0.2469816

 Al 
  0.2324019  0.4841320  0.2503787

 Al 
  0.2394275  0.7500309  0.0070541

 Al 
  0.0091505  0.9922219  0.5020358

 Al 
  0.0158742  0.2428989  0.7601257

 Al 
  0.2376900  0.0119326  0.7616133

 Al 
  0.2578845  0.2504084  0.5124462

 Al 
  0.0090107  0.5056321  0.4987600

 Al 
  0.0384832  0.7462712  0.7486610

 Al 
  0.2572930  0.4997401  0.7548042

 Al 
  0.2561643  0.7385043  0.4917925

 Al 
  0.4908742  0.4978677  0.9991857

 Al 
  0.4836926  0.7414707  0.2422838

 Al 
  0.7627704  0.4975583  0.2380736

 Al 
  0.7433172  0.7466140  0.9916625

 Al 
  0.4875254  0.0032127  0.4860700

 Al 
  0.4990137  0.2570813  0.7591146

 Al 
  0.7330157  0.0070380  0.7280791

 Al 
  0.7837013  0.2466660  0.4802609

 Al 
  0.5413928  0.4952626  0.5209037

 Al 
  0.4636318  0.7631293  0.7639040

 Al 
  0.7526632  0.5115551  0.7564440

 Al 
  0.7454891  0.7622556  0.4984629

