32 
charge = 0 
 Al 
  0.9913470  0.0073029  0.0040048

 Al 
  0.0012338  0.2249827  0.2364252

 Al 
  0.2351035  0.0105700  0.2451228

 Al 
  0.2450943  0.2568190  0.0160326

 Al 
  0.4949483  0.0079711  0.9960955

 Al 
  0.4937107  0.2594909  0.2688815

 Al 
  0.7386466  0.9700894  0.2418556

 Al 
  0.7428060  0.2573462  0.0068375

 Al 
  0.0120860  0.5023316  0.9881120

 Al 
  0.0033414  0.7544837  0.2475063

 Al 
  0.2329315  0.4818474  0.2498404

 Al 
  0.2396540  0.7510086  0.0066866

 Al 
  0.0093399  0.9937825  0.5003515

 Al 
  0.0151057  0.2446562  0.7598720

 Al 
  0.2388731  0.0090899  0.7609413

 Al 
  0.2606913  0.2494666  0.5121454

 Al 
  0.0085268  0.5049701  0.4998849

 Al 
  0.0366616  0.7458331  0.7480273

 Al 
  0.2575590  0.4988590  0.7546668

 Al 
  0.2567064  0.7374783  0.4920598

 Al 
  0.4900079  0.4978095  0.9996250

 Al 
  0.4848448  0.7428197  0.2426984

 Al 
  0.7628806  0.4967650  0.2385686

 Al 
  0.7441674  0.7472006  0.9908594

 Al 
  0.4863064  0.0033526  0.4861405

 Al 
  0.4993775  0.2568747  0.7585033

 Al 
  0.7331419  0.0059836  0.7264418

 Al 
  0.7838906  0.2466140  0.4808153

 Al 
  0.5393532  0.4976895  0.5206574

 Al 
  0.4641095  0.7643260  0.7621925

 Al 
  0.7520296  0.5103955  0.7581209

 Al 
  0.7455237  0.7617903  0.5000285

