32 
charge = 0 
 Al 
  0.9913581  0.0070046  0.0043377

 Al 
  0.0015234  0.2253911  0.2365192

 Al 
  0.2351678  0.0101270  0.2455435

 Al 
  0.2457787  0.2571754  0.0157950

 Al 
  0.4949210  0.0076494  0.9958505

 Al 
  0.4936513  0.2589216  0.2683159

 Al 
  0.7382382  0.9696896  0.2415871

 Al 
  0.7430758  0.2575120  0.0066160

 Al 
  0.0121702  0.5024491  0.9880093

 Al 
  0.0028204  0.7545245  0.2473269

 Al 
  0.2327397  0.4825937  0.2500111

 Al 
  0.2395748  0.7506720  0.0067942

 Al 
  0.0092718  0.9932578  0.5009158

 Al 
  0.0153928  0.2440448  0.7599673

 Al 
  0.2384597  0.0100515  0.7611690

 Al 
  0.2597644  0.2497711  0.5122556

 Al 
  0.0086951  0.5052015  0.4995025

 Al 
  0.0373187  0.7459705  0.7482451

 Al 
  0.2574699  0.4991671  0.7547238

 Al 
  0.2565207  0.7378174  0.4919744

 Al 
  0.4902913  0.4978194  0.9994629

 Al 
  0.4844488  0.7423729  0.2425536

 Al 
  0.7628521  0.4970212  0.2383880

 Al 
  0.7438790  0.7469940  0.9911353

 Al 
  0.4867123  0.0033154  0.4861022

 Al 
  0.4992488  0.2569563  0.7587137

 Al 
  0.7330850  0.0063351  0.7269652

 Al 
  0.7838510  0.2466301  0.4806136

 Al 
  0.5400772  0.4968677  0.5207737

 Al 
  0.4639127  0.7639300  0.7627840

 Al 
  0.7522227  0.5107953  0.7575504

 Al 
  0.7455052  0.7619672  0.4994988

