32 
charge = 0 
 Al 
  0.9905784  0.0087273  0.9972328

 Al 
  0.9961301  0.2233182  0.2370947

 Al 
  0.2369561  0.0136181  0.2402888

 Al 
  0.2379276  0.2514133  0.0164212

 Al 
  0.4953616  0.0118992  0.0001572

 Al 
  0.4957985  0.2665970  0.2742426

 Al 
  0.7437874  0.9776570  0.2450844

 Al 
  0.7396515  0.2539627  0.0088981

 Al 
  0.0099017  0.5008094  0.9905475

 Al 
  0.0097062  0.7529726  0.2498453

 Al 
  0.2362284  0.4745508  0.2488181

 Al 
  0.2409992  0.7555752  0.0064217

 Al 
  0.0105626  0.0001052  0.4936971

 Al 
  0.0096728  0.2532573  0.7577051

 Al 
  0.2445980  0.9972922  0.7577075

 Al 
  0.2704247  0.2468752  0.5104190

 Al 
  0.0061395  0.5013279  0.5047745

 Al 
  0.0251869  0.7449074  0.7450535

 Al 
  0.2585280  0.4942688  0.7532919

 Al 
  0.2590169  0.7338127  0.4926959

 Al 
  0.4869202  0.4983862  0.0027684

 Al 
  0.4904572  0.7478801  0.2447577

 Al 
  0.7626392  0.4945164  0.2419200

 Al 
  0.7479469  0.7506250  0.9872729

 Al 
  0.4818375  0.0028650  0.4876553

 Al 
  0.5014517  0.2549502  0.7555183

 Al 
  0.7349871  0.0020593  0.7222922

 Al 
  0.7821989  0.2466573  0.4846456

 Al 
  0.5276298  0.5081605  0.5169843

 Al 
  0.4695683  0.7685127  0.7539293

 Al 
  0.7508007  0.5044515  0.7653396

 Al 
  0.7464098  0.7579872  0.5065195

