32 
charge = 0 
 Al 
  0.9910537  0.0086481  0.0006485

 Al 
  0.9986152  0.2232526  0.2364128

 Al 
  0.2355799  0.0129041  0.2422108

 Al 
  0.2406020  0.2538723  0.0168804

 Al 
  0.4951673  0.0102804  0.9982476

 Al 
  0.4945894  0.2636367  0.2723912

 Al 
  0.7416069  0.9739518  0.2437491

 Al 
  0.7409336  0.2556643  0.0081803

 Al 
  0.0110514  0.5014380  0.9892555

 Al 
  0.0070776  0.7538179  0.2488503

 Al 
  0.2346753  0.4771472  0.2489864

 Al 
  0.2403544  0.7536013  0.0063301

 Al 
  0.0099562  0.9975212  0.4963764

 Al 
  0.0123187  0.2495013  0.7588436

 Al 
  0.2421415  0.0021212  0.7591728

 Al 
  0.2667999  0.2476833  0.5111814

 Al 
  0.0071853  0.5030283  0.5027189

 Al 
  0.0306977  0.7451277  0.7463492

 Al 
  0.2581531  0.4963207  0.7539961

 Al 
  0.2580825  0.7352247  0.4925264

 Al 
  0.4881281  0.4979964  0.0012079

 Al 
  0.4879511  0.7458616  0.2438567

 Al 
  0.7628657  0.4952317  0.2402777

 Al 
  0.7463269  0.7489778  0.9887716

 Al 
  0.4835429  0.0032932  0.4868002

 Al 
  0.5004703  0.2559589  0.7568487

 Al 
  0.7339624  0.0035667  0.7235001

 Al 
  0.7834290  0.2465707  0.4827335

 Al 
  0.5330998  0.5037399  0.5189570

 Al 
  0.4665920  0.7669546  0.7575491

 Al 
  0.7511138  0.5071803  0.7623373

 Al 
  0.7458752  0.7599228  0.5038550

