32 
charge = 0 
 Al 
  0.9909769  0.0087248  0.0000248

 Al 
  0.9981548  0.2231771  0.2365056

 Al 
  0.2357878  0.0131144  0.2418086

 Al 
  0.2400215  0.2533959  0.0168655

 Al 
  0.4952032  0.0106121  0.9986115

 Al 
  0.4947899  0.2642382  0.2728132

 Al 
  0.7420425  0.9746423  0.2440189

 Al 
  0.7406713  0.2553537  0.0083412

 Al 
  0.0108448  0.5013081  0.9894832

 Al 
  0.0076135  0.7536718  0.2490496

 Al 
  0.2349723  0.4765680  0.2489196

 Al 
  0.2404745  0.7539949  0.0063289

 Al 
  0.0100663  0.9980521  0.4958208

 Al 
  0.0118237  0.2502488  0.7586419

 Al 
  0.2426377  0.0011262  0.7588919

 Al 
  0.2675907  0.2474853  0.5110279

 Al 
  0.0069786  0.5027065  0.5031347

 Al 
  0.0296644  0.7450646  0.7460918

 Al 
  0.2582335  0.4959173  0.7538661

 Al 
  0.2582793  0.7349253  0.4925709

 Al 
  0.4878756  0.4980583  0.0014962

 Al 
  0.4884375  0.7462799  0.2440362

 Al 
  0.7628335  0.4950597  0.2405809

 Al 
  0.7466512  0.7492835  0.9884647

 Al 
  0.4831741  0.0032350  0.4869487

 Al 
  0.5006547  0.2557782  0.7565900

 Al 
  0.7341394  0.0032424  0.7231932

 Al 
  0.7832446  0.2465781  0.4830813

 Al 
  0.5320566  0.5046310  0.5186018

 Al 
  0.4671105  0.7672962  0.7568326

 Al 
  0.7510334  0.5066606  0.7629511

 Al 
  0.7459618  0.7595701  0.5044020

