32 
charge = 0 
 Al 
  0.9900450  0.0082768  0.9940956

 Al 
  0.9939236  0.2241325  0.2379709

 Al 
  0.2385921  0.0135785  0.2389770

 Al 
  0.2362779  0.2494084  0.0153507

 Al 
  0.4955287  0.0130699  0.0017734

 Al 
  0.4971227  0.2687577  0.2751992

 Al 
  0.7454755  0.9809180  0.2461029

 Al 
  0.7387209  0.2524145  0.0093065

 Al 
  0.0088300  0.5003775  0.9918259

 Al 
  0.0116145  0.7521336  0.2506101

 Al 
  0.2375204  0.4730892  0.2489790

 Al 
  0.2415895  0.7570714  0.0066185

 Al 
  0.0111257  0.0019553  0.4918346

 Al 
  0.0073511  0.2561272  0.7565987

 Al 
  0.2463925  0.9938889  0.7564403

 Al 
  0.2725979  0.2465695  0.5098795

 Al 
  0.0053141  0.4998614  0.5062955

 Al 
  0.0203616  0.7449000  0.7440337

 Al 
  0.2587743  0.4926600  0.7526682

 Al 
  0.2596171  0.7328870  0.4927318

 Al 
  0.4860737  0.4988157  0.0041681

 Al 
  0.4925189  0.7493330  0.2454396

 Al 
  0.7623608  0.4942367  0.2433951

 Al 
  0.7491906  0.7521100  0.9862061

 Al 
  0.4807943  0.0022821  0.4884956

 Al 
  0.5023056  0.2539936  0.7544317

 Al 
  0.7360428  0.0011188  0.7219346

 Al 
  0.7806816  0.2468207  0.4864462

 Al 
  0.5230026  0.5114871  0.5151651

 Al 
  0.4725620  0.7694186  0.7511175

 Al 
  0.7506633  0.5021113  0.7674917

 Al 
  0.7470299  0.7561940  0.5084191

