32 
charge = 0 
 Al 
  0.9894102  0.0074576  0.9908198

 Al 
  0.9916984  0.2255148  0.2390253

 Al 
  0.2405537  0.0130501  0.2379375

 Al 
  0.2351195  0.2475038  0.0137035

 Al 
  0.4956908  0.0140562  0.0033587

 Al 
  0.4987166  0.2705906  0.2756510

 Al 
  0.7470336  0.9842087  0.2470571

 Al 
  0.7379239  0.2508267  0.0095602

 Al 
  0.0077014  0.5000408  0.9932615

 Al 
  0.0132283  0.7512128  0.2513230

 Al 
  0.2387543  0.4722241  0.2493837

 Al 
  0.2422306  0.7583894  0.0068474

 Al 
  0.0117197  0.0035110  0.4903322

 Al 
  0.0049948  0.2586679  0.7553896

 Al 
  0.2478949  0.9911056  0.7551322

 Al 
  0.2739963  0.2465732  0.5094649

 Al 
  0.0045320  0.4983837  0.5076036

 Al 
  0.0154671  0.7450200  0.7430721

 Al 
  0.2589587  0.4912046  0.7520445

 Al 
  0.2600094  0.7321927  0.4927033

 Al 
  0.4853720  0.4993033  0.0055975

 Al 
  0.4945399  0.7506076  0.2460324

 Al 
  0.7620365  0.4942317  0.2449235

 Al 
  0.7503143  0.7536607  0.9853411

 Al 
  0.4801161  0.0015160  0.4893990

 Al 
  0.5031644  0.2529664  0.7533798

 Al 
  0.7372729  0.0004715  0.7220992

 Al 
  0.7787721  0.2470732  0.4884139

 Al 
  0.5184434  0.5144337  0.5132988

 Al 
  0.4759492  0.7699507  0.7485706

 Al 
  0.7505643  0.4997500  0.7692775

 Al 
  0.7478207  0.7542956  0.5099958

