32 
charge = 0 
 Al 
  0.9890686  0.0069403  0.9891862

 Al 
  0.9906255  0.2263774  0.2395847

 Al 
  0.2416106  0.0126330  0.2375278

 Al 
  0.2347211  0.2466153  0.0126937

 Al 
  0.4957651  0.0144671  0.0041161

 Al 
  0.4995966  0.2713591  0.2756943

 Al 
  0.7477501  0.9858113  0.2475088

 Al 
  0.7375823  0.2500495  0.0096307

 Al 
  0.0071321  0.4999121  0.9940226

 Al 
  0.0139028  0.7507388  0.2516571

 Al 
  0.2393273  0.4720063  0.2496634

 Al 
  0.2425697  0.7589637  0.0069526

 Al 
  0.0120167  0.0041644  0.4897319

 Al 
  0.0038352  0.2597780  0.7547683

 Al 
  0.2485162  0.9899720  0.7544738

 Al 
  0.2744010  0.2466821  0.5093139

 Al 
  0.0041632  0.4976622  0.5081592

 Al 
  0.0130625  0.7451215  0.7426179

 Al 
  0.2590255  0.4905586  0.7517450

 Al 
  0.2601109  0.7319403  0.4926761

 Al 
  0.4850824  0.4995582  0.0062967

 Al 
  0.4955188  0.7511794  0.2462873

 Al 
  0.7618670  0.4943307  0.2456859

 Al 
  0.7508156  0.7544354  0.9849946

 Al 
  0.4799243  0.0010779  0.4898557

 Al 
  0.5035840  0.2524429  0.7528786

 Al 
  0.7379449  0.0002611  0.7223590

 Al 
  0.7776954  0.2472316  0.4894436

 Al 
  0.5162504  0.5157307  0.5123843

 Al 
  0.4777486  0.7700708  0.7474321

 Al 
  0.7505111  0.4985917  0.7700139

 Al 
  0.7482761  0.7533352  0.5106455

