32 
charge = 0 
 Al 
  0.9903260  0.0085540  0.9956945

 Al 
  0.9950398  0.2236461  0.2375031

 Al 
  0.2377234  0.0136639  0.2396020

 Al 
  0.2370427  0.2504047  0.0159621

 Al 
  0.4954445  0.0125043  0.0009628

 Al 
  0.4964234  0.2677108  0.2747834

 Al 
  0.7446426  0.9792708  0.2456017

 Al 
  0.7391713  0.2532016  0.0091221

 Al 
  0.0093770  0.5005829  0.9911638

 Al 
  0.0106913  0.7525667  0.2502339

 Al 
  0.2368769  0.4737463  0.2488664

 Al 
  0.2412876  0.7563400  0.0065121

 Al 
  0.0108373  0.0010618  0.4927256

 Al 
  0.0085243  0.2547225  0.7571692

 Al 
  0.2455262  0.9955225  0.7570813

 Al 
  0.2716029  0.2466833  0.5101356

 Al 
  0.0057225  0.5006015  0.5055567

 Al 
  0.0227996  0.7448864  0.7445386

 Al 
  0.2586580  0.4934521  0.7529825

 Al 
  0.2593386  0.7333226  0.4927231

 Al 
  0.4864809  0.4985917  0.0034577

 Al 
  0.4914893  0.7486275  0.2451067

 Al 
  0.7625080  0.4943431  0.2426464

 Al 
  0.7485805  0.7513539  0.9867185

 Al 
  0.4812744  0.0025989  0.4880625

 Al 
  0.5018749  0.2544849  0.7549738

 Al 
  0.7354908  0.0015544  0.7220447

 Al 
  0.7814947  0.2467279  0.4855205

 Al 
  0.5253230  0.5098609  0.5160896

 Al 
  0.4710064  0.7690090  0.7524999

 Al 
  0.7507227  0.5032907  0.7664546

 Al 
  0.7466982  0.7571098  0.5075046

