32 
charge = 0 
 Al 
  0.9898941  0.0081036  0.9932813

 Al 
  0.9933630  0.2244295  0.2382221

 Al 
  0.2390575  0.0134894  0.2386899

 Al 
  0.2359413  0.2489184  0.0149894

 Al 
  0.4955695  0.0133360  0.0021769

 Al 
  0.4974989  0.2692503  0.2753589

 Al 
  0.7458789  0.9817460  0.2463480

 Al 
  0.7385080  0.2520172  0.0093844

 Al 
  0.0085503  0.5002834  0.9921724

 Al 
  0.0120489  0.7519083  0.2507933

 Al 
  0.2378372  0.4728169  0.2490595

 Al 
  0.2417442  0.7574204  0.0066754

 Al 
  0.0112730  0.0023749  0.4914225

 Al 
  0.0067608  0.2567992  0.7563029

 Al 
  0.2467997  0.9931303  0.7561148

 Al 
  0.2730224  0.2465423  0.5097619

 Al 
  0.0051136  0.4994901  0.5066457

 Al 
  0.0191352  0.7449186  0.7437862

 Al 
  0.2588263  0.4922788  0.7525098

 Al 
  0.2597371  0.7326902  0.4927293

 Al 
  0.4858844  0.4989332  0.0045258

 Al 
  0.4930313  0.7496683  0.2455968

 Al 
  0.7622828  0.4942094  0.2437751

 Al 
  0.7494852  0.7524949  0.9859698

 Al 
  0.4805888  0.0021063  0.4887184

 Al 
  0.5025222  0.2537412  0.7541632

 Al 
  0.7363348  0.0009282  0.7219284

 Al 
  0.7802386  0.2468752  0.4869252

 Al 
  0.5218467  0.5122642  0.5146973

 Al 
  0.4733776  0.7695881  0.7504505

 Al 
  0.7506373  0.5015185  0.7679756

 Al 
  0.7472118  0.7557250  0.5088461

