32 
charge = 0 
 Al 
  0.9897381  0.0079068  0.9924620

 Al 
  0.9928036  0.2247599  0.2384820

 Al 
  0.2395414  0.0133706  0.2384201

 Al 
  0.2356368  0.2484370  0.0145933

 Al 
  0.4956116  0.0135897  0.0025766

 Al 
  0.4978900  0.2697206  0.2754876

 Al 
  0.7462737  0.9825714  0.2465880

 Al 
  0.7383038  0.2516187  0.0094525

 Al 
  0.0082682  0.5001968  0.9925276

 Al 
  0.0124635  0.7516794  0.2509740

 Al 
  0.2381491  0.4725818  0.2491535

 Al 
  0.2419039  0.7577570  0.0067336

 Al 
  0.0114202  0.0027734  0.4910339

 Al 
  0.0061692  0.2574477  0.7560022

 Al 
  0.2471858  0.9924125  0.7557881

 Al 
  0.2733961  0.2465348  0.5096542

 Al 
  0.0049156  0.4991201  0.5069811

 Al 
  0.0179075  0.7449458  0.7435436

 Al 
  0.2588746  0.4919076  0.7523538

 Al 
  0.2598423  0.7325083  0.4927244

 Al 
  0.4857037  0.4990545  0.0048847

 Al 
  0.4935387  0.7499938  0.2457490

 Al 
  0.7622024  0.4942008  0.2441575

 Al 
  0.7497711  0.7528823  0.9857458

 Al 
  0.4804069  0.0019195  0.4889436

 Al 
  0.5027375  0.2534850  0.7538983

 Al 
  0.7366380  0.0007574  0.7219544

 Al 
  0.7797708  0.2469358  0.4874128

 Al 
  0.5207007  0.5130167  0.5142295

 Al 
  0.4742154  0.7697342  0.7498032

 Al 
  0.7506126  0.5009257  0.7684347

 Al 
  0.7474048  0.7552522  0.5092520

