32 
charge = 0 
 Al 
  0.9892406  0.0072063  0.9900005

 Al 
  0.9911576  0.2259331  0.2393037

 Al 
  0.2410784  0.0128533  0.2377234

 Al 
  0.2349055  0.2470534  0.0132122

 Al 
  0.4957279  0.0142691  0.0037412

 Al 
  0.4991510  0.2709878  0.2756868

 Al 
  0.7473974  0.9850156  0.2472848

 Al 
  0.7377481  0.2504356  0.0095998

 Al 
  0.0074167  0.4999728  0.9936389

 Al 
  0.0135773  0.7509764  0.2514925

 Al 
  0.2390451  0.4720979  0.2495174

 Al 
  0.2423989  0.7586840  0.0069019

 Al 
  0.0118682  0.0038476  0.4900191

 Al 
  0.0044119  0.2592372  0.7550802

 Al 
  0.2482167  0.9905178  0.7548030

 Al 
  0.2742228  0.2466190  0.5093844

 Al 
  0.0043451  0.4980211  0.5078907

 Al 
  0.0142592  0.7450683  0.7428432

 Al 
  0.2589946  0.4908742  0.7518935

 Al 
  0.2600688  0.7320591  0.4926910

 Al 
  0.4852223  0.4994307  0.0059490

 Al 
  0.4950324  0.7508997  0.2461636

 Al 
  0.7619524  0.4942738  0.2453047

 Al 
  0.7505705  0.7540493  0.9851604

 Al 
  0.4800072  0.0013007  0.4896280

 Al 
  0.5033761  0.2527053  0.7531273

 Al 
  0.7376046  0.0003577  0.7222155

 Al 
  0.7782437  0.2471499  0.4889251

 Al 
  0.5173370  0.5150983  0.5128385

 Al 
  0.4768415  0.7700225  0.7479890

 Al 
  0.7505383  0.4991684  0.7696587

 Al 
  0.7480434  0.7538154  0.5103324

