32 
charge = 0 
 Al 
  0.9872840  0.0037015  0.9814786

 Al 
  0.9860774  0.2319341  0.2423568

 Al 
  0.2471746  0.0095268  0.2365155

 Al 
  0.2342706  0.2429013  0.0062064

 Al 
  0.4960150  0.0156515  0.0073833

 Al 
  0.5045678  0.2736511  0.2743837

 Al 
  0.7507029  0.9930919  0.2496572

 Al 
  0.7364722  0.2466140  0.0094773

 Al 
  0.0043191  0.4996535  0.9981523

 Al 
  0.0159101  0.7483578  0.2531657

 Al 
  0.2417071  0.4727204  0.2516088

 Al 
  0.2445065  0.7609203  0.0071581

 Al 
  0.0134127  0.0062138  0.4882048

 Al 
  0.9984271  0.2635748  0.7516695

 Al 
  0.2503267  0.9866517  0.7511584

 Al 
  0.2737748  0.2480546  0.5090255

 Al 
  0.0025642  0.4943852  0.5099030

 Al 
  0.0018712  0.7459173  0.7405722

 Al 
  0.2591134  0.4882543  0.7504888

 Al 
  0.2594983  0.7316618  0.4925709

 Al 
  0.4842533  0.5008663  0.0094216

 Al 
  0.5000990  0.7534875  0.2471016

 Al 
  0.7610044  0.4957886  0.2493701

 Al 
  0.7526261  0.7580763  0.9841703

 Al 
  0.4804341  0.9985570  0.4920103

 Al 
  0.5054651  0.2498762  0.7506250

 Al 
  0.7418370  0.0001893  0.7250495

 Al 
  0.7712329  0.2482625  0.4949495

 Al 
  0.5064984  0.5203468  0.5081803

 Al 
  0.4875006  0.7692589  0.7432479

 Al 
  0.7499579  0.4932565  0.7722378

 Al 
  0.7510928  0.7485929  0.5124981

