32 
charge = 0 
 Al 
  0.9869375  0.0029701  0.9800468

 Al 
  0.9853745  0.2332545  0.2428754

 Al 
  0.2483058  0.0087718  0.2365118

 Al 
  0.2344327  0.2422912  0.0046681

 Al 
  0.4960386  0.0157146  0.0079278

 Al 
  0.5056420  0.2738058  0.2738652

 Al 
  0.7511893  0.9944025  0.2500990

 Al 
  0.7363707  0.2460348  0.0093547

 Al 
  0.0037597  0.4996745  0.9990434

 Al 
  0.0160487  0.7478887  0.2534466

 Al 
  0.2421031  0.4731622  0.2520779

 Al 
  0.2449606  0.7611294  0.0070974

 Al 
  0.0136664  0.0064069  0.4881689

 Al 
  0.9974246  0.2639944  0.7510680

 Al 
  0.2504641  0.9863757  0.7504727

 Al 
  0.2731870  0.2484518  0.5090305

 Al 
  0.0022895  0.4938035  0.5100540

 Al 
  0.9997995  0.7461178  0.7401948

 Al 
  0.2590800  0.4879796  0.7503007

 Al 
  0.2591295  0.7318177  0.4925796

 Al 
  0.4842075  0.5011361  0.0099562

 Al 
  0.5009789  0.7538686  0.2471833

 Al 
  0.7608262  0.4962774  0.2500879

 Al 
  0.7528476  0.7587360  0.9841815

 Al 
  0.4808190  0.9980137  0.4924026

 Al 
  0.5057881  0.2493800  0.7502116

 Al 
  0.7427355  0.0003391  0.7258180

 Al 
  0.7697131  0.2485100  0.4961400

 Al 
  0.5047758  0.5209099  0.5074043

 Al 
  0.4895933  0.7688308  0.7427070

 Al 
  0.7497512  0.4922912  0.7724246

 Al 
  0.7517586  0.7476598  0.5126009

