32 
charge = 0 
 Al 
  0.9862853  0.0014603  0.9772907

 Al 
  0.9842099  0.2360972  0.2438679

 Al 
  0.2505718  0.0071865  0.2367061

 Al 
  0.2349574  0.2411836  0.0013712

 Al 
  0.4960658  0.0156651  0.0089092

 Al 
  0.5078412  0.2738194  0.2726066

 Al 
  0.7520841  0.9969036  0.2510321

 Al 
  0.7362928  0.2449903  0.0090206

 Al 
  0.0026286  0.4997834  0.0008985

 Al 
  0.0160722  0.7469643  0.2539998

 Al 
  0.2428419  0.4742909  0.2530692

 Al 
  0.2459569  0.7613596  0.0068363

 Al 
  0.0141441  0.0066073  0.4883360

 Al 
  0.9954903  0.2645067  0.7498899

 Al 
  0.2505619  0.9861207  0.7490446

 Al 
  0.2716041  0.2493231  0.5090639

 Al 
  0.0017710  0.4927033  0.5101728

 Al 
  0.9957997  0.7465385  0.7394634

 Al 
  0.2589624  0.4876194  0.7500012

 Al 
  0.2581246  0.7323684  0.4926563

 Al 
  0.4842335  0.5016880  0.0109277

 Al 
  0.5027462  0.7545777  0.2472823

 Al 
  0.7604512  0.4974692  0.2515197

 Al 
  0.7531471  0.7599710  0.9843881

 Al 
  0.4818660  0.9969135  0.4931513

 Al 
  0.5063673  0.2483998  0.7493973

 Al 
  0.7446748  0.0007722  0.7275469

 Al 
  0.7664014  0.2490458  0.4986362

 Al 
  0.5015197  0.5216870  0.5058896

 Al 
  0.4939359  0.7677182  0.7419088

 Al 
  0.7492042  0.4904596  0.7725781

 Al 
  0.7531867  0.7458047  0.5125353

