32 
charge = 0 
 Al 
  0.9857272  0.9999097  0.9746869

 Al 
  0.9833944  0.2392184  0.2448084

 Al 
  0.2528303  0.0055443  0.2371850

 Al 
  0.2357210  0.2402121  0.9977996

 Al 
  0.4960794  0.0153718  0.0097359

 Al 
  0.5100713  0.2734283  0.2710683

 Al 
  0.7528971  0.9992575  0.2520643

 Al 
  0.7363967  0.2441055  0.0085676

 Al 
  0.0014739  0.4999728  0.0028464

 Al 
  0.0157529  0.7460683  0.2545406

 Al 
  0.2435424  0.4757203  0.2541149

 Al 
  0.2470831  0.7613336  0.0063512

 Al 
  0.0145723  0.0065826  0.4887976

 Al 
  0.9936525  0.2645797  0.7487575

 Al 
  0.2504604  0.9861999  0.7475199

 Al 
  0.2695139  0.2502599  0.5090973

 Al 
  0.0012895  0.4916823  0.5100453

 Al 
  0.9919930  0.7469692  0.7387728

 Al 
  0.2587681  0.4875179  0.7498181

 Al 
  0.2567484  0.7332756  0.4928382

 Al 
  0.4844216  0.5022610  0.0117655

 Al 
  0.5045629  0.7552324  0.2473120

 Al 
  0.7600292  0.4989691  0.2529701

 Al 
  0.7532399  0.7610749  0.9848609

 Al 
  0.4832917  0.9958109  0.4938530

 Al 
  0.5068289  0.2474370  0.7485855

 Al 
  0.7468108  0.0013663  0.7295134

 Al 
  0.7626949  0.2496436  0.5012994

 Al 
  0.4984914  0.5219940  0.5044032

 Al 
  0.4984889  0.7662665  0.7414843

 Al 
  0.7484506  0.4887765  0.7724494

 Al 
  0.7547225  0.7439595  0.5120848

