32 
charge = 0 
 Al 
  0.9854067  0.9987414  0.9728541

 Al 
  0.9830256  0.2417380  0.2454903

 Al 
  0.2545035  0.0043042  0.2377457

 Al 
  0.2364289  0.2395735  0.9949631

 Al 
  0.4960943  0.0149881  0.0102396

 Al 
  0.5117346  0.2728603  0.2697441

 Al 
  0.7534639  0.0009257  0.2529145

 Al 
  0.7366083  0.2435511  0.0081456

 Al 
  0.0005916  0.5001621  0.0043562

 Al 
  0.0152765  0.7454322  0.2549342

 Al 
  0.2440572  0.4769690  0.2549168

 Al 
  0.2480162  0.7611343  0.0058215

 Al 
  0.0148495  0.0064328  0.4893161

 Al 
  0.9923432  0.2643384  0.7479518

 Al 
  0.2502846  0.9864413  0.7463059

 Al 
  0.2676439  0.2509740  0.5090973

 Al 
  0.0009455  0.4909608  0.5097866

 Al 
  0.9892827  0.7472836  0.7383026

 Al 
  0.2585689  0.4876182  0.7497673

 Al 
  0.2554750  0.7342149  0.4930610

 Al 
  0.4846728  0.5026991  0.0122977

 Al 
  0.5059774  0.7556928  0.2473009

 Al 
  0.7596666  0.5003020  0.2540790

 Al 
  0.7531607  0.7618002  0.9854079

 Al 
  0.4846121  0.9950002  0.4943542

 Al 
  0.5070776  0.2467254  0.7479729

 Al 
  0.7485273  0.0019009  0.7311247

 Al 
  0.7596468  0.2501423  0.5033959

 Al 
  0.4963727  0.5219061  0.5033018

 Al 
  0.5020271  0.7649609  0.7414113

 Al 
  0.7477377  0.4876318  0.7721697

 Al 
  0.7559180  0.7425907  0.5114697

