32 
charge = 0 
 Al 
  0.9851493  0.9968529  0.9701166

 Al 
  0.9828870  0.2462118  0.2466091

 Al 
  0.2571816  0.0023043  0.2390884

 Al 
  0.2378150  0.2386973  0.9900401

 Al 
  0.4961685  0.0140364  0.0108089

 Al 
  0.5143929  0.2713950  0.2672652

 Al 
  0.7543377  0.0034837  0.2544701

 Al 
  0.7372395  0.2428518  0.0072905

 Al 
  0.9990966  0.5005557  0.0068821

 Al 
  0.0140278  0.7444867  0.2555381

 Al 
  0.2449272  0.4793339  0.2562348

 Al 
  0.2497092  0.7604537  0.0045963

 Al 
  0.0151923  0.0059774  0.4904423

 Al 
  0.9903396  0.2633632  0.7467477

 Al 
  0.2498725  0.9871145  0.7441649

 Al 
  0.2640575  0.2521039  0.5090107

 Al 
  0.0003923  0.4898495  0.5090367

 Al 
  0.9851455  0.7477452  0.7376776

 Al 
  0.2581382  0.4881330  0.7498738

 Al 
  0.2529541  0.7362903  0.4936191

 Al 
  0.4853163  0.5034280  0.0129783

 Al 
  0.5084414  0.7563908  0.2472526

 Al 
  0.7589402  0.5028872  0.2559626

 Al 
  0.7527288  0.7627667  0.9867172

 Al 
  0.4872630  0.9937280  0.4951463

 Al 
  0.5072509  0.2455745  0.7469605

 Al 
  0.7515210  0.0029281  0.7339847

 Al 
  0.7541310  0.2510866  0.5069774

 Al 
  0.4931823  0.5211487  0.5015074

 Al 
  0.5080367  0.7624103  0.7417504

 Al 
  0.7462687  0.4860242  0.7713628

 Al 
  0.7578944  0.7403866  0.5098844

