32 
charge = 0 
 Al 
  0.9852037  0.9975942  0.9711549

 Al 
  0.9828721  0.2443914  0.2461636

 Al 
  0.2561334  0.0030877  0.2384894

 Al 
  0.2372345  0.2390179  0.9920276

 Al 
  0.4961289  0.0144634  0.0106257

 Al 
  0.5133558  0.2720571  0.2682912

 Al 
  0.7539973  0.0024974  0.2538278

 Al 
  0.7369437  0.2430956  0.0076543

 Al 
  0.9996968  0.5003886  0.0058784

 Al 
  0.0145946  0.7448431  0.2553067

 Al 
  0.2445770  0.4783501  0.2557151

 Al 
  0.2490149  0.7607792  0.0051371

 Al 
  0.0150772  0.0061866  0.4899584

 Al 
  0.9911094  0.2638372  0.7472043

 Al 
  0.2500495  0.9868101  0.7450349

 Al 
  0.2655512  0.2516682  0.5090614

 Al 
  0.0006126  0.4902789  0.5093832

 Al 
  0.9867333  0.7475744  0.7378991

 Al 
  0.2583251  0.4878744  0.7498008

 Al 
  0.2540147  0.7353856  0.4933679

 Al 
  0.4850255  0.5031397  0.0127395

 Al 
  0.5074427  0.7561235  0.2472736

 Al 
  0.7592508  0.5018044  0.2552064

 Al 
  0.7529466  0.7624214  0.9861331

 Al 
  0.4861393  0.9942206  0.4948369

 Al 
  0.5072224  0.2460274  0.7473615

 Al 
  0.7503143  0.0025011  0.7328239

 Al 
  0.7563920  0.2506918  0.5055430

 Al 
  0.4944013  0.5215423  0.5022165

 Al 
  0.5056284  0.7634808  0.7415474

 Al 
  0.7468962  0.4866145  0.7717353

 Al 
  0.7571160  0.7412517  0.5106034

