32 
charge = 0 
 Al 
  0.9851678  0.9972204  0.9706240

 Al 
  0.9828672  0.2452973  0.2463863

 Al 
  0.2566618  0.0026929  0.2387790

 Al 
  0.2375204  0.2388520  0.9910351

 Al 
  0.4961462  0.0142567  0.0107247

 Al 
  0.5138793  0.2717378  0.2677838

 Al 
  0.7541693  0.0029974  0.2541458

 Al 
  0.7370848  0.2429682  0.0074761

 Al 
  0.9993973  0.5004703  0.0063821

 Al 
  0.0143223  0.7446612  0.2554242

 Al 
  0.2447515  0.4788364  0.2559762

 Al 
  0.2493602  0.7606245  0.0048760

 Al 
  0.0151391  0.0060851  0.4901960

 Al 
  0.9907183  0.2636144  0.7469717

 Al 
  0.2499616  0.9869573  0.7446018

 Al 
  0.2648136  0.2518885  0.5090392

 Al 
  0.0005025  0.4900624  0.5092174

 Al 
  0.9859277  0.7476635  0.7377828

 Al 
  0.2582347  0.4879956  0.7498317

 Al 
  0.2534912  0.7358262  0.4934879

 Al 
  0.4851653  0.5032845  0.0128645

 Al 
  0.5079402  0.7562596  0.2472637

 Al 
  0.7590986  0.5023390  0.2555851

 Al 
  0.7528452  0.7626021  0.9864153

 Al 
  0.4866913  0.9939718  0.4949928

 Al 
  0.5072447  0.2457997  0.7471598

 Al 
  0.7509170  0.0027115  0.7334030

 Al 
  0.7552695  0.2508873  0.5062608

 Al 
  0.4937812  0.5213603  0.5018601

 Al 
  0.5068338  0.7629536  0.7416378

 Al 
  0.7465880  0.4863101  0.7715571

 Al 
  0.7575083  0.7408148  0.5102582

