32 
charge = 0 
 Al 
  0.9856208  0.9945609  0.9673519

 Al 
  0.9836295  0.2525915  0.2481647

 Al 
  0.2604190  0.9998787  0.2417702

 Al 
  0.2399894  0.2379164  0.9832050

 Al 
  0.4964655  0.0121368  0.0109091

 Al 
  0.5175523  0.2683951  0.2634857

 Al 
  0.7554490  0.0064675  0.2568623

 Al 
  0.7387221  0.2424212  0.0058475

 Al 
  0.9970274  0.5012215  0.0101084

 Al 
  0.0114487  0.7435758  0.2561668

 Al 
  0.2462007  0.4830491  0.2578697

 Al 
  0.2521954  0.7587991  0.0022202

 Al 
  0.0152728  0.0050641  0.4923234

 Al 
  0.9880847  0.2609339  0.7454854

 Al 
  0.2492438  0.9884139  0.7410970

 Al 
  0.2584996  0.2533080  0.5086147

 Al 
  0.9996362  0.4885637  0.5074353

 Al 
  0.9805245  0.7480768  0.7372939

 Al 
  0.2573387  0.4895871  0.7504492

 Al 
  0.2489258  0.7401069  0.4947886

 Al 
  0.4866875  0.5043488  0.0134263

 Al 
  0.5119586  0.7571581  0.2472303

 Al 
  0.7576135  0.5069774  0.2585045

 Al 
  0.7515470  0.7634238  0.9893743

 Al 
  0.4917145  0.9922516  0.4961549

 Al 
  0.5068227  0.2441080  0.7456772

 Al 
  0.7555678  0.0044911  0.7379449

 Al 
  0.7459977  0.2525890  0.5117234

 Al 
  0.4896354  0.5189149  0.4992080

 Al 
  0.5161217  0.7582941  0.7430783

 Al 
  0.7437800  0.4846555  0.7696376

 Al 
  0.7603077  0.7377209  0.5065913

