32 
charge = 0 
 Al 
  0.9859747  0.9940201  0.9668754

 Al 
  0.9840169  0.2543253  0.2486065

 Al 
  0.2611826  0.9993082  0.2426736

 Al 
  0.2406156  0.2377902  0.9813697

 Al 
  0.4966054  0.0115031  0.0107730

 Al 
  0.5182751  0.2673816  0.2624029

 Al 
  0.7557547  0.0071741  0.2575689

 Al 
  0.7392666  0.2424224  0.0054044

 Al 
  0.9964593  0.5014294  0.0108955

 Al 
  0.0105849  0.7434384  0.2562757

 Al 
  0.2465744  0.4841592  0.2582570

 Al 
  0.2528823  0.7581989  0.0014294

 Al 
  0.0151861  0.0047795  0.4928704

 Al 
  0.9875910  0.2600676  0.7452317

 Al 
  0.2490916  0.9888199  0.7402468

 Al 
  0.2568945  0.2535295  0.5084340

 Al 
  0.9994221  0.4882753  0.5069044

 Al 
  0.9795196  0.7480645  0.7373076

 Al 
  0.2570727  0.4901552  0.7506930

 Al 
  0.2477526  0.7413272  0.4951983

 Al 
  0.4871739  0.5045728  0.0134375

 Al 
  0.5129288  0.7573189  0.2472538

 Al 
  0.7571618  0.5081654  0.2591617

 Al 
  0.7511163  0.7634337  0.9902901

 Al 
  0.4930845  0.9919150  0.4964222

 Al 
  0.5065306  0.2437305  0.7453690

 Al 
  0.7565962  0.0049292  0.7389746

 Al 
  0.7437144  0.2530370  0.5129226

 Al 
  0.4888458  0.5180758  0.4986263

 Al 
  0.5182417  0.7570566  0.7435956

 Al 
  0.7430226  0.4844933  0.7690535

 Al 
  0.7608608  0.7371046  0.5054762

