32 
charge = 0 
 Al 
  0.9854822  0.9948517  0.9676464

 Al 
  0.9834637  0.2517016  0.2479432

 Al 
  0.2600082  0.0001869  0.2413383

 Al 
  0.2396738  0.2379956  0.9841481

 Al 
  0.4964061  0.0124400  0.0109487

 Al 
  0.5171588  0.2688803  0.2640315

 Al 
  0.7552955  0.0060900  0.2565121

 Al 
  0.7384696  0.2424410  0.0060665

 Al 
  0.9973170  0.5011200  0.0096889

 Al 
  0.0118633  0.7436674  0.2560987

 Al 
  0.2460138  0.4825009  0.2576605

 Al 
  0.2518440  0.7590800  0.0026001

 Al 
  0.0152975  0.0052040  0.4920474

 Al 
  0.9883570  0.2613423  0.7456314

 Al 
  0.2493268  0.9882147  0.7415301

 Al 
  0.2593052  0.2531743  0.5086939

 Al 
  0.9997426  0.4887221  0.5076927

 Al 
  0.9810814  0.7480632  0.7373088

 Al 
  0.2574662  0.4893285  0.7503391

 Al 
  0.2495149  0.7395129  0.4945956

 Al 
  0.4864598  0.5042300  0.0134003

 Al 
  0.5114635  0.7570677  0.2472241

 Al 
  0.7578263  0.5063809  0.2581617

 Al 
  0.7517499  0.7633880  0.9889411

 Al 
  0.4910413  0.9924348  0.4960175

 Al 
  0.5069390  0.2443035  0.7458430

 Al 
  0.7550270  0.0042684  0.7374066

 Al 
  0.7471548  0.2523662  0.5110910

 Al 
  0.4900686  0.5193047  0.4995124

 Al 
  0.5150228  0.7589055  0.7428382

 Al 
  0.7441550  0.4847767  0.7699173

 Al 
  0.7600045  0.7380563  0.5071259

