32 
charge = 0 
 Al 
  0.9915215  0.9916922  0.9682936

 Al 
  0.9883298  0.2640575  0.2517771

 Al 
  0.2642245  0.9970373  0.2499505

 Al 
  0.2445906  0.2379239  0.9711103

 Al 
  0.4984221  0.0064155  0.0077744

 Al 
  0.5206314  0.2591085  0.2553822

 Al 
  0.7580491  0.0103658  0.2624907

 Al 
  0.7443171  0.2438419  0.0021571

 Al 
  0.9929112  0.5031397  0.0139733

 Al 
  0.0040159  0.7443889  0.2558995

 Al 
  0.2492488  0.4924100  0.2597136

 Al 
  0.2568400  0.7528823  0.9950609

 Al 
  0.0127853  0.0030060  0.4960831

 Al 
  0.9861814  0.2530828  0.7445423

 Al 
  0.2488293  0.9915264  0.7350205

 Al 
  0.2464098  0.2533389  0.5062386

 Al 
  0.9980211  0.4875142  0.5032102

 Al 
  0.9765296  0.7461215  0.7388793

 Al 
  0.2546631  0.4960175  0.7528464

 Al 
  0.2402987  0.7501510  0.4988317

 Al 
  0.4917566  0.5053871  0.0121034

 Al 
  0.5185993  0.7577001  0.2481635

 Al 
  0.7529528  0.5153037  0.2622605

 Al 
  0.7477080  0.7613522  0.9982365

 Al 
  0.5032709  0.9904856  0.4982885

 Al 
  0.5021756  0.2415970  0.7443988

 Al 
  0.7608881  0.0072930  0.7440448

 Al 
  0.7297943  0.2561593  0.5182404

 Al 
  0.4859462  0.5107730  0.4958715

 Al 
  0.5298178  0.7483293  0.7479481

 Al 
  0.7378335  0.4862866  0.7643545

 Al 
  0.7624387  0.7353126  0.4968554

