32 
charge = 0 
 Al 
  0.9884733  0.9924125  0.9666291

 Al 
  0.9861727  0.2604475  0.2503836

 Al 
  0.2633941  0.9976536  0.2466747

 Al 
  0.2429880  0.2376677  0.9749208

 Al 
  0.4974481  0.0087211  0.0094971

 Al 
  0.5202057  0.2628719  0.2582682

 Al 
  0.7569959  0.0093485  0.2603968

 Al 
  0.7419002  0.2429508  0.0035753

 Al 
  0.9943394  0.5023439  0.0132097

 Al 
  0.0068734  0.7435424  0.2563178

 Al 
  0.2480954  0.4887308  0.2593683

 Al 
  0.2553475  0.7553685  0.9979382

 Al 
  0.0142443  0.0036966  0.4948728

 Al 
  0.9863596  0.2561866  0.7446414

 Al 
  0.2487352  0.9904225  0.7370947

 Al 
  0.2507240  0.2537820  0.5073907

 Al 
  0.9986016  0.4875538  0.5047201

 Al 
  0.9769912  0.7473850  0.7378979

 Al 
  0.2558376  0.4930857  0.7518786

 Al 
  0.2432862  0.7463975  0.4971202

 Al 
  0.4895203  0.5052176  0.0129709

 Al 
  0.5164509  0.7576791  0.2475880

 Al 
  0.7550059  0.5125971  0.2612903

 Al 
  0.7491857  0.7626776  0.9945126

 Al 
  0.4987847  0.9909349  0.4974531

 Al 
  0.5045542  0.2424175  0.7445300

 Al 
  0.7597322  0.0064749  0.7423370

 Al 
  0.7352619  0.2548253  0.5166687

 Al 
  0.4866702  0.5141429  0.4967526

 Al 
  0.5255520  0.7520581  0.7460002

 Al 
  0.7399918  0.4849116  0.7664831

 Al 
  0.7622717  0.7354921  0.5006163

