32 
charge = 0 
 Al 
  0.9898693  0.9920103  0.9672566

 Al 
  0.9871974  0.2623595  0.2510705

 Al 
  0.2638904  0.9972836  0.2482897

 Al 
  0.2438072  0.2377605  0.9729048

 Al 
  0.4978949  0.0075937  0.0087186

 Al 
  0.5205287  0.2610304  0.2568078

 Al 
  0.7575021  0.0099166  0.2614475

 Al 
  0.7430622  0.2433469  0.0028724

 Al 
  0.9936092  0.5027276  0.0137011

 Al 
  0.0054428  0.7438778  0.2561593

 Al 
  0.2486696  0.4905302  0.2595948

 Al 
  0.2561321  0.7541607  0.9965249

 Al 
  0.0136082  0.0033365  0.4955126

 Al 
  0.9861950  0.2546433  0.7445634

 Al 
  0.2487377  0.9909868  0.7360267

 Al 
  0.2485360  0.2536236  0.5068586

 Al 
  0.9983095  0.4874759  0.5039392

 Al 
  0.9766187  0.7468393  0.7383323

 Al 
  0.2552844  0.4944669  0.7523637

 Al 
  0.2417504  0.7482934  0.4979481

 Al 
  0.4905809  0.5053413  0.0125910

 Al 
  0.5175858  0.7577100  0.2478355

 Al 
  0.7540320  0.5140352  0.2618484

 Al 
  0.7484382  0.7620885  0.9963121

 Al 
  0.5010000  0.9906886  0.4978553

 Al 
  0.5034639  0.2419930  0.7444050

 Al 
  0.7604450  0.0069279  0.7432714

 Al 
  0.7324328  0.2554911  0.5175920

 Al 
  0.4862210  0.5124957  0.4962539

 Al 
  0.5278093  0.7501893  0.7469692

 Al 
  0.7388941  0.4854933  0.7654423

 Al 
  0.7624511  0.7352817  0.4987290

