32 
charge = 0 
 Al 
  0.9873298  0.9929162  0.9663989

 Al 
  0.9852606  0.2583226  0.2497116

 Al 
  0.2627221  0.9981560  0.2451153

 Al 
  0.2421303  0.2376479  0.9771595

 Al 
  0.4970756  0.0098040  0.0101121

 Al 
  0.5196636  0.2646367  0.2597743

 Al 
  0.7565195  0.0086506  0.2593399

 Al 
  0.7408321  0.2426600  0.0042696

 Al 
  0.9951042  0.5019838  0.0125080

 Al 
  0.0082941  0.7433741  0.2563784

 Al 
  0.2475224  0.4869870  0.2590379

 Al 
  0.2544849  0.7565009  0.9992995

 Al 
  0.0147171  0.0040852  0.4941674

 Al 
  0.9866838  0.2576976  0.7447911

 Al 
  0.2488132  0.9898347  0.7382258

 Al 
  0.2529801  0.2538055  0.5078437

 Al 
  0.9989035  0.4877395  0.5055331

 Al 
  0.9776669  0.7477662  0.7375786

 Al 
  0.2563363  0.4918618  0.7514071

 Al 
  0.2449037  0.7444842  0.4963492

 Al 
  0.4885637  0.5050270  0.0132407

 Al 
  0.5152084  0.7575949  0.2474123

 Al 
  0.7558846  0.5110193  0.2605960

 Al 
  0.7499319  0.7631058  0.9928296

 Al 
  0.4966140  0.9912393  0.4970657

 Al 
  0.5054502  0.2428766  0.7447639

 Al 
  0.7587582  0.0059440  0.7412269

 Al 
  0.7382840  0.2541570  0.5154757

 Al 
  0.4873113  0.5157059  0.4973640

 Al 
  0.5230360  0.7539317  0.7450547

 Al 
  0.7411180  0.4845565  0.7674843

 Al 
  0.7618992  0.7359264  0.5024863

