32 
charge = 0 
 Al 
  0.9941302  0.9913668  0.9703270

 Al 
  0.9900030  0.2659943  0.2527536

 Al 
  0.2644386  0.9968888  0.2522251

 Al 
  0.2455844  0.2382493  0.9690634

 Al 
  0.4992587  0.0047535  0.0062559

 Al 
  0.5204247  0.2564143  0.2534998

 Al 
  0.7588609  0.0107953  0.2638681

 Al 
  0.7461413  0.2446525  0.0011732

 Al 
  0.9920289  0.5037350  0.0139770

 Al 
  0.0021410  0.7453666  0.2553834

 Al 
  0.2500347  0.4950869  0.2597000

 Al 
  0.2576679  0.7510767  0.9930338

 Al 
  0.0113522  0.0026088  0.4967365

 Al 
  0.9863905  0.2510086  0.7445869

 Al 
  0.2490991  0.9922034  0.7337805

 Al 
  0.2436538  0.2527820  0.5052621

 Al 
  0.9976375  0.4877655  0.5023464

 Al 
  0.9768205  0.7448839  0.7397889

 Al 
  0.2537028  0.4983664  0.7534565

 Al 
  0.2384919  0.7525296  0.5000928

 Al 
  0.4935201  0.5053079  0.0112866

 Al 
  0.5197317  0.7576432  0.2487377

 Al 
  0.7513329  0.5166687  0.2625687

 Al 
  0.7467997  0.7601629  0.0010049

 Al 
  0.5064044  0.9902591  0.4989332

 Al 
  0.5001411  0.2411056  0.7445919

 Al 
  0.7610576  0.0076209  0.7448604

 Al 
  0.7265767  0.2570628  0.5186637

 Al 
  0.4858274  0.5083647  0.4955473

 Al 
  0.5321197  0.7458703  0.7492426

 Al 
  0.7365007  0.4876429  0.7628187

 Al 
  0.7621256  0.7357643  0.4944334

