32 
charge = 0 
 Al 
  0.9927689  0.9915165  0.9692156

 Al 
  0.9891441  0.2650735  0.2522610

 Al 
  0.2643632  0.9969383  0.2510804

 Al 
  0.2450943  0.2380711  0.9700361

 Al 
  0.4988206  0.0055987  0.0070529

 Al 
  0.5205782  0.2577806  0.2544404

 Al 
  0.7584414  0.0106034  0.2631825

 Al 
  0.7452082  0.2442255  0.0016695

 Al 
  0.9924632  0.5034305  0.0140278

 Al 
  0.0030729  0.7448344  0.2556668

 Al 
  0.2496386  0.4937206  0.2597322

 Al 
  0.2572707  0.7519925  0.9940572

 Al 
  0.0121194  0.0028018  0.4964247

 Al 
  0.9862544  0.2520432  0.7445560

 Al 
  0.2489419  0.9918705  0.7343857

 Al 
  0.2450213  0.2530840  0.5057732

 Al 
  0.9978293  0.4876095  0.5027610

 Al 
  0.9766175  0.7455435  0.7393075

 Al 
  0.2542040  0.4971511  0.7531583

 Al 
  0.2393768  0.7513576  0.4994505

 Al 
  0.4926093  0.5053685  0.0117185

 Al 
  0.5191995  0.7576766  0.2484295

 Al 
  0.7521694  0.5160376  0.2624499

 Al 
  0.7472415  0.7607854  0.9995916

 Al 
  0.5048215  0.9903681  0.4985991

 Al 
  0.5012029  0.2413457  0.7444656

 Al 
  0.7610341  0.0074811  0.7444805

 Al 
  0.7281422  0.2566086  0.5185152

 Al 
  0.4858534  0.5095849  0.4956821

 Al 
  0.5310220  0.7470954  0.7485978

 Al 
  0.7371529  0.4869252  0.7635996

 Al 
  0.7623249  0.7354772  0.4956289

