32 
charge = 0 
 Al 
  0.9980224  0.9910722  0.9739307

 Al 
  0.9923333  0.2678815  0.2540085

 Al 
  0.2643706  0.9969667  0.2551161

 Al 
  0.2467440  0.2388421  0.9671056

 Al 
  0.5005359  0.0025135  0.0039379

 Al 
  0.5195906  0.2528414  0.2511274

 Al 
  0.7600304  0.0110824  0.2655215

 Al 
  0.7486560  0.2458888  0.9998899

 Al 
  0.9910141  0.5045480  0.0133669

 Al 
  0.9998936  0.7470930  0.2544490

 Al 
  0.2510519  0.4987674  0.2593894

 Al 
  0.2585181  0.7487006  0.9904039

 Al 
  0.0089575  0.0021732  0.4973925

 Al 
  0.9869969  0.2484926  0.7447329

 Al 
  0.2496857  0.9929793  0.7324204

 Al 
  0.2403421  0.2518489  0.5037857

 Al 
  0.9971425  0.4884486  0.5014987

 Al 
  0.9777994  0.7428840  0.7412282

 Al 
  0.2522412  0.5017586  0.7541050

 Al 
  0.2364598  0.7552485  0.5017833

 Al 
  0.4960596  0.5049453  0.0100119

 Al 
  0.5207057  0.7575405  0.2497005

 Al 
  0.7490174  0.5177108  0.2625439

 Al 
  0.7458480  0.7584030  0.0047733

 Al 
  0.5104933  0.9900042  0.4998787

 Al 
  0.4971165  0.2405586  0.7451723

 Al 
  0.7605923  0.0077311  0.7456166

 Al 
  0.7230781  0.2582162  0.5184632

 Al 
  0.4860341  0.5052064  0.4954495

 Al 
  0.5343572  0.7428828  0.7507945

 Al 
  0.7350453  0.4897208  0.7607396

 Al 
  0.7612643  0.7370514  0.4916613

