32 
charge = 0 
 Al 
  0.0063178  0.9907319  0.9829724

 Al 
  0.9968764  0.2696698  0.2560814

 Al 
  0.2634399  0.9977204  0.2599921

 Al 
  0.2484518  0.2404497  0.9656304

 Al 
  0.5034120  0.9981399  0.9988317

 Al 
  0.5165239  0.2461809  0.2467749

 Al 
  0.7624536  0.0110589  0.2678964

 Al 
  0.7535543  0.2485075  0.9975311

 Al 
  0.9895933  0.5060913  0.0105477

 Al 
  0.9964828  0.7514430  0.2520333

 Al 
  0.2529268  0.5061853  0.2579934

 Al 
  0.2595082  0.7445151  0.9857334

 Al 
  0.0030234  0.0015482  0.4982117

 Al 
  0.9888768  0.2445956  0.7451636

 Al 
  0.2513527  0.9940894  0.7307683

 Al 
  0.2350997  0.2498676  0.5005458

 Al 
  0.9961598  0.4908433  0.5008255

 Al 
  0.9810430  0.7383558  0.7446154

 Al 
  0.2488936  0.5086889  0.7546322

 Al 
  0.2336518  0.7588362  0.5049057

 Al 
  0.5013279  0.5034305  0.0071927

 Al 
  0.5207787  0.7574229  0.2520816

 Al 
  0.7443283  0.5171650  0.2613881

 Al 
  0.7449953  0.7548661  0.0119128

 Al 
  0.5178568  0.9894795  0.5019764

 Al 
  0.4908841  0.2398866  0.7470237

 Al 
  0.7580701  0.0069712  0.7466549

 Al 
  0.7186897  0.2602693  0.5161391

 Al 
  0.4871479  0.4995037  0.4961376

 Al 
  0.5361529  0.7383384  0.7531273

 Al 
  0.7335268  0.4938295  0.7565999

 Al 
  0.7586023  0.7413197  0.4880786

