32 
charge = 0 
 Al 
  0.0006522  0.9909373  0.9766286

 Al 
  0.9938283  0.2687144  0.2547510

 Al 
  0.2641664  0.9971425  0.2568264

 Al 
  0.2473826  0.2393025  0.9662937

 Al 
  0.5014244  0.0010878  0.0023427

 Al 
  0.5187825  0.2506200  0.2496819

 Al 
  0.7608076  0.0111393  0.2664324

 Al 
  0.7502636  0.2467279  0.9990978

 Al 
  0.9904695  0.5050629  0.0126603

 Al 
  0.9986387  0.7483899  0.2537350

 Al 
  0.2516781  0.5011534  0.2590404

 Al 
  0.2589265  0.7472538  0.9888075

 Al 
  0.0071878  0.0019430  0.4977093

 Al 
  0.9875266  0.2470732  0.7448579

 Al 
  0.2501646  0.9933964  0.7317361

 Al 
  0.2384585  0.2512017  0.5027709

 Al 
  0.9968306  0.4890797  0.5011435

 Al 
  0.9786929  0.7414682  0.7422529

 Al 
  0.2512165  0.5040023  0.7543933

 Al 
  0.2353844  0.7566705  0.5028365

 Al 
  0.4977452  0.5045666  0.0091295

 Al 
  0.5209965  0.7574823  0.2504109

 Al 
  0.7474964  0.5179013  0.2623063

 Al 
  0.7454198  0.7572447  0.0071531

 Al 
  0.5129969  0.9898433  0.5005272

 Al 
  0.4950980  0.2402777  0.7456945

 Al 
  0.7599673  0.0076184  0.7459816

 Al 
  0.7213071  0.2589142  0.5179533

 Al 
  0.4863212  0.5032709  0.4955584

 Al 
  0.5353077  0.7412009  0.7516571

 Al 
  0.7343448  0.4910933  0.7594055

 Al 
  0.7605143  0.7382196  0.4902208

