32 
charge = 0 
 Al 
  0.9997537  0.9909794  0.9756881

 Al 
  0.9933246  0.2684620  0.2545060

 Al 
  0.2642468  0.9970744  0.2562608

 Al 
  0.2471759  0.2391404  0.9665314

 Al 
  0.5011188  0.0015692  0.0028897

 Al 
  0.5190770  0.2513650  0.2501658

 Al 
  0.7605428  0.0111294  0.2661391

 Al 
  0.7497215  0.2464420  0.9993627

 Al 
  0.9906453  0.5048896  0.0129239

 Al 
  0.9990471  0.7479370  0.2539850

 Al 
  0.2514690  0.5003440  0.2591703

 Al 
  0.2587991  0.7477353  0.9893384

 Al 
  0.0078041  0.0020172  0.4976103

 Al 
  0.9873373  0.2475360  0.7448146

 Al 
  0.2499950  0.9932615  0.7319514

 Al 
  0.2390748  0.2514220  0.5031199

 Al 
  0.9969370  0.4888508  0.5012487

 Al 
  0.9783711  0.7419558  0.7418989

 Al 
  0.2515705  0.5032399  0.7543080

 Al 
  0.2357297  0.7562175  0.5024838

 Al 
  0.4971722  0.5047065  0.0094315

 Al 
  0.5209272  0.7575009  0.2501634

 Al 
  0.7480112  0.5178766  0.2624041

 Al 
  0.7455485  0.7576370  0.0063536

 Al 
  0.5121615  0.9898990  0.5003044

 Al 
  0.4957836  0.2403656  0.7455076

 Al 
  0.7602025  0.0076716  0.7458653

 Al 
  0.7218677  0.2586815  0.5181550

 Al 
  0.4862136  0.5039156  0.4955076

 Al 
  0.5350267  0.7417479  0.7513774

 Al 
  0.7345602  0.4906304  0.7598572

 Al 
  0.7607829  0.7377989  0.4906787

