32 
charge = 0 
 Al 
  0.0043946  0.9907913  0.9807460

 Al 
  0.9958665  0.2694582  0.2556717

 Al 
  0.2637246  0.9974989  0.2589909

 Al 
  0.2481325  0.2400351  0.9657010

 Al 
  0.5027264  0.9991275  0.0000347

 Al 
  0.5173630  0.2476437  0.2477402

 Al 
  0.7619004  0.0111084  0.2674769

 Al 
  0.7524603  0.2479098  0.9980434

 Al 
  0.9898495  0.5057547  0.0113447

 Al 
  0.9971363  0.7503737  0.2526323

 Al 
  0.2525160  0.5044874  0.2583894

 Al 
  0.2593485  0.7453876  0.9867247

 Al 
  0.0044874  0.0016695  0.4980595

 Al 
  0.9883929  0.2453567  0.7450559

 Al 
  0.2509294  0.9938827  0.7310245

 Al 
  0.2361430  0.2503057  0.5013056

 Al 
  0.9963913  0.4901849  0.5008725

 Al 
  0.9801916  0.7394139  0.7437874

 Al 
  0.2496993  0.5071246  0.7546112

 Al 
  0.2341604  0.7582286  0.5042325

 Al 
  0.5001176  0.5038637  0.0078536

 Al 
  0.5209779  0.7574316  0.2514937

 Al 
  0.7453851  0.5175796  0.2617519

 Al 
  0.7450671  0.7556532  0.0103522

 Al 
  0.5162851  0.9896082  0.5014752

 Al 
  0.4922875  0.2399856  0.7465509

 Al 
  0.7587830  0.0072484  0.7464284

 Al 
  0.7194124  0.2598300  0.5168507

 Al 
  0.4868459  0.5007264  0.4958950

 Al 
  0.5360391  0.7391973  0.7526818

 Al 
  0.7336988  0.4929434  0.7575491

 Al 
  0.7592879  0.7401923  0.4886676

