32 
charge = 0 
 Al 
  0.0015668  0.9908965  0.9776075

 Al 
  0.9943357  0.2689397  0.2549911

 Al 
  0.2640736  0.9972192  0.2573833

 Al 
  0.2475818  0.2394733  0.9660908

 Al 
  0.5017388  0.0006027  0.0017821

 Al 
  0.5184620  0.2498738  0.2491968

 Al 
  0.7610762  0.0111418  0.2667158

 Al 
  0.7508106  0.2470187  0.9988317

 Al 
  0.9903025  0.5052361  0.0123694

 Al 
  0.9982414  0.7488614  0.2534738

 Al 
  0.2518885  0.5019739  0.2588968

 Al 
  0.2590453  0.7467774  0.9882790

 Al 
  0.0065467  0.0018712  0.4978046

 Al 
  0.9877283  0.2466227  0.7449050

 Al 
  0.2503440  0.9935263  0.7315343

 Al 
  0.2378558  0.2509789  0.5024157

 Al 
  0.9967242  0.4893285  0.5010544

 Al 
  0.9790382  0.7409683  0.7426204

 Al 
  0.2508514  0.5047733  0.7544676

 Al 
  0.2350540  0.7570999  0.5031880

 Al 
  0.4983281  0.5044119  0.0088189

 Al 
  0.5210373  0.7574662  0.2506683

 Al 
  0.7469742  0.5178840  0.2621925

 Al 
  0.7453072  0.7568487  0.0079551

 Al 
  0.5138298  0.9897876  0.5007562

 Al 
  0.4944025  0.2401948  0.7458938

 Al 
  0.7597050  0.0075491  0.7460955

 Al 
  0.7207811  0.2591468  0.5177219

 Al 
  0.4864388  0.5026273  0.4956227

 Al 
  0.5355515  0.7406700  0.7519281

 Al 
  0.7341493  0.4915598  0.7589488

 Al 
  0.7602297  0.7386714  0.4897901

