32 
charge = 0 
 Al 
  0.0092013  0.9906614  0.9864376

 Al 
  0.9983417  0.2697948  0.2566073

 Al 
  0.2629511  0.9980892  0.2613596

 Al 
  0.2488478  0.2411267  0.9658198

 Al 
  0.5044589  0.9966734  0.9970088

 Al 
  0.5151280  0.2440585  0.2453480

 Al 
  0.7632667  0.0109648  0.2683617

 Al 
  0.7551507  0.2493849  0.9967972

 Al 
  0.9892864  0.5065690  0.0092149

 Al 
  0.9956487  0.7530951  0.2511027

 Al 
  0.2535233  0.5087261  0.2573251

 Al 
  0.2596876  0.7433246  0.9843485

 Al 
  0.0007388  0.0013873  0.4984258

 Al 
  0.9896428  0.2435956  0.7453294

 Al 
  0.2520185  0.9943481  0.7305245

 Al 
  0.2337112  0.2492537  0.4993973

 Al 
  0.9957972  0.4919435  0.5008539

 Al 
  0.9824056  0.7367915  0.7459086

 Al 
  0.2476573  0.5109636  0.7545394

 Al 
  0.2330318  0.7595094  0.5058549

 Al 
  0.5031273  0.5026830  0.0061928

 Al 
  0.5202329  0.7574353  0.2529974

 Al 
  0.7427838  0.5162343  0.2607643

 Al 
  0.7450213  0.7537288  0.0141404

 Al 
  0.5200597  0.9892778  0.5027474

 Al 
  0.4888508  0.2398062  0.7477538

 Al 
  0.7568969  0.0064527  0.7470237

 Al 
  0.7179125  0.2608905  0.5149114

 Al 
  0.4876219  0.4977724  0.4965794

 Al 
  0.5359945  0.7372741  0.7536991

 Al 
  0.7334773  0.4950547  0.7551718

 Al 
  0.7575231  0.7431291  0.4874524

