32 
charge = 0 
 Al 
  0.0189496  0.9906539  0.9992711

 Al 
  0.0027981  0.2685672  0.2573536

 Al 
  0.2607631  0.9995706  0.2647765

 Al 
  0.2493589  0.2441092  0.9695176

 Al 
  0.5081394  0.9916935  0.9907208

 Al 
  0.5090429  0.2373917  0.2405289

 Al 
  0.7656440  0.0107396  0.2679756

 Al 
  0.7601814  0.2520445  0.9946277

 Al 
  0.9889746  0.5078350  0.0035902

 Al 
  0.9943184  0.7588498  0.2478442

 Al 
  0.2553661  0.5173741  0.2543686

 Al 
  0.2599599  0.7406168  0.9807757

 Al 
  0.9923284  0.0010569  0.4994196

 Al 
  0.9925325  0.2413804  0.7458764

 Al 
  0.2544503  0.9947602  0.7310801

 Al 
  0.2307114  0.2477303  0.4955027

 Al 
  0.9942911  0.4967662  0.5016831

 Al 
  0.9875080  0.7322484  0.7509146

 Al 
  0.2433506  0.5175165  0.7528080

 Al 
  0.2322199  0.7596592  0.5083313

 Al 
  0.5090404  0.4991399  0.0026781

 Al 
  0.5158074  0.7577298  0.2563796

 Al 
  0.7380736  0.5102260  0.2582100

 Al 
  0.7463628  0.7504146  0.0203443

 Al 
  0.5257463  0.9886689  0.5055294

 Al 
  0.4829984  0.2404002  0.7500458

 Al 
  0.7523835  0.0037325  0.7490100

 Al 
  0.7182293  0.2625291  0.5093993

 Al 
  0.4890847  0.4928877  0.4987303

 Al 
  0.5321841  0.7358930  0.7548413

 Al 
  0.7355576  0.4979630  0.7500978

 Al 
  0.7536434  0.7498503  0.4877679

