32 
charge = 0 
 Al 
  0.0250371  0.9911019  0.0081073

 Al 
  0.0050629  0.2664299  0.2565814

 Al 
  0.2588869  0.0005371  0.2658631

 Al 
  0.2488454  0.2468455  0.9751720

 Al 
  0.5104636  0.9884647  0.9868633

 Al 
  0.5038760  0.2335912  0.2373670

 Al 
  0.7663556  0.0109982  0.2652814

 Al 
  0.7629610  0.2531917  0.9935721

 Al 
  0.9895191  0.5081333  0.9993206

 Al 
  0.9951129  0.7620873  0.2460881

 Al 
  0.2562744  0.5228405  0.2518217

 Al 
  0.2600614  0.7404287  0.9799342

 Al 
  0.9867791  0.0011113  0.5008391

 Al 
  0.9946154  0.2408841  0.7461178

 Al 
  0.2559094  0.9946228  0.7328523

 Al 
  0.2305727  0.2474333  0.4932380

 Al 
  0.9929719  0.5008180  0.5025605

 Al 
  0.9907406  0.7309935  0.7547176

 Al 
  0.2408470  0.5197688  0.7500941

 Al 
  0.2329192  0.7579650  0.5089550

 Al 
  0.5124783  0.4959037  0.0002129

 Al 
  0.5104289  0.7580776  0.2586555

 Al 
  0.7357210  0.5039565  0.2565121

 Al 
  0.7482662  0.7489196  0.0226313

 Al 
  0.5270964  0.9887184  0.5073660

 Al 
  0.4807534  0.2418408  0.7508737

 Al 
  0.7496250  0.0011757  0.7513811

 Al 
  0.7213975  0.2628298  0.5048228

 Al 
  0.4894968  0.4908705  0.5005755

 Al 
  0.5265173  0.7370353  0.7548797

 Al 
  0.7391082  0.4985570  0.7465670

 Al 
  0.7513007  0.7538711  0.4901775

