32 
charge = 0 
 Al 
  0.0205411  0.9907158  0.0015259

 Al 
  0.0034355  0.2681154  0.2572707

 Al 
  0.2603188  0.9998317  0.2651441

 Al 
  0.2492958  0.2447404  0.9706908

 Al 
  0.5087533  0.9908606  0.9896948

 Al 
  0.5078103  0.2363707  0.2397208

 Al 
  0.7659188  0.0107618  0.2675066

 Al 
  0.7609401  0.2523984  0.9943258

 Al 
  0.9890500  0.5079650  0.0025209

 Al 
  0.9943765  0.7597545  0.2473405

 Al 
  0.2556309  0.5187998  0.2537659

 Al 
  0.2599809  0.7404299  0.9804180

 Al 
  0.9908829  0.0010457  0.4996956

 Al 
  0.9930486  0.2411886  0.7459519

 Al 
  0.2548488  0.9947540  0.7314168

 Al 
  0.2305208  0.2475917  0.4948852

 Al 
  0.9939805  0.4977377  0.5018997

 Al 
  0.9883682  0.7317398  0.7518502

 Al 
  0.2426637  0.5183011  0.7522487

 Al 
  0.2322991  0.7593535  0.5085837

 Al 
  0.5099649  0.4983813  0.0020655

 Al 
  0.5146255  0.7578127  0.2569650

 Al 
  0.7374066  0.5087867  0.2577657

 Al 
  0.7467774  0.7499752  0.0210893

 Al 
  0.5263118  0.9886243  0.5060047

 Al 
  0.4822744  0.2406750  0.7503304

 Al 
  0.7516299  0.0031347  0.7495198

 Al 
  0.7187961  0.2626875  0.5082929

 Al 
  0.4892505  0.4922665  0.4991758

 Al 
  0.5309873  0.7360366  0.7549082

 Al 
  0.7362977  0.4982142  0.7492080

 Al 
  0.7530122  0.7509517  0.4882172

