32 
charge = 0 
 Al 
  0.0243144  0.9910128  0.0070294

 Al 
  0.0048191  0.2667430  0.2567435

 Al 
  0.2591369  0.0004294  0.2657802

 Al 
  0.2489456  0.2464705  0.9743231

 Al 
  0.5101938  0.9888545  0.9873076

 Al 
  0.5045579  0.2340268  0.2377543

 Al 
  0.7663259  0.0109413  0.2657406

 Al 
  0.7626491  0.2530890  0.9936822

 Al 
  0.9894151  0.5081295  0.9998503

 Al 
  0.9949322  0.7617420  0.2462663

 Al 
  0.2561841  0.5221907  0.2521620

 Al 
  0.2600441  0.7403718  0.9799502

 Al 
  0.9874375  0.0010903  0.5006114

 Al 
  0.9943505  0.2409101  0.7460955

 Al 
  0.2557485  0.9946550  0.7325689

 Al 
  0.2304997  0.2474333  0.4934892

 Al 
  0.9931476  0.5002859  0.5024528

 Al 
  0.9903681  0.7310282  0.7542337

 Al 
  0.2411217  0.5196216  0.7505037

 Al 
  0.2327768  0.7582397  0.5089327

 Al 
  0.5120848  0.4963381  0.0005272

 Al 
  0.5111938  0.7580318  0.2583820

 Al 
  0.7359710  0.5048116  0.2567138

 Al 
  0.7479939  0.7490694  0.0224444

 Al 
  0.5270618  0.9886738  0.5071457

 Al 
  0.4809403  0.2416106  0.7508168

 Al 
  0.7499282  0.0015185  0.7510358

 Al 
  0.7208715  0.2628447  0.5054168

 Al 
  0.4894832  0.4910549  0.5003354

 Al 
  0.5273526  0.7368162  0.7549082

 Al 
  0.7385822  0.4985372  0.7470051

 Al 
  0.7515668  0.7534280  0.4897901

