32 
charge = 0 
 Al 
  0.0297733  0.9920907  0.0153025

 Al 
  0.0064923  0.2639622  0.2549094

 Al 
  0.2569860  0.0011113  0.2660920

 Al 
  0.2478937  0.2497574  0.9822397

 Al 
  0.5121405  0.9858670  0.9841493

 Al 
  0.4988515  0.2308339  0.2347149

 Al 
  0.7660128  0.0115551  0.2610415

 Al 
  0.7648854  0.2535394  0.9929694

 Al 
  0.9905524  0.5078350  0.9957638

 Al 
  0.9970299  0.7639226  0.2452923

 Al 
  0.2566519  0.5270704  0.2492438

 Al 
  0.2602396  0.7414559  0.9805752

 Al 
  0.9825293  0.0013737  0.5028922

 Al 
  0.9965720  0.2409175  0.7461970

 Al 
  0.2568004  0.9943196  0.7353460

 Al 
  0.2317979  0.2477427  0.4917863

 Al 
  0.9916823  0.5047201  0.5031966

 Al 
  0.9930338  0.7319279  0.7581469

 Al 
  0.2392802  0.5196191  0.7466957

 Al 
  0.2343263  0.7556816  0.5086481

 Al 
  0.5149485  0.4926724  0.9979271

 Al 
  0.5044404  0.7584018  0.2604673

 Al 
  0.7342780  0.4975373  0.2551668

 Al 
  0.7503750  0.7481164  0.0231907

 Al 
  0.5262165  0.9894411  0.5087978

 Al 
  0.4801916  0.2438530  0.7508836

 Al 
  0.7479444  0.9985954  0.7541743

 Al 
  0.7260767  0.2622345  0.5005272

 Al 
  0.4892901  0.4900995  0.5023031

 Al 
  0.5197342  0.7389721  0.7543773

 Al 
  0.7433172  0.4983875  0.7435102

 Al 
  0.7496572  0.7563883  0.4934694

