32 
charge = 0 
 Al 
  0.0291372  0.9919063  0.0143248

 Al 
  0.0063165  0.2643384  0.2552052

 Al 
  0.2572719  0.0010519  0.2660920

 Al 
  0.2480521  0.2493107  0.9811173

 Al 
  0.5119301  0.9862197  0.9844859

 Al 
  0.4995916  0.2311940  0.2350861

 Al 
  0.7661230  0.0114623  0.2617544

 Al 
  0.7646379  0.2535332  0.9930362

 Al 
  0.9903705  0.5079142  0.9962477

 Al 
  0.9966908  0.7637295  0.2453517

 Al 
  0.2566284  0.5265074  0.2496324

 Al 
  0.2602062  0.7412455  0.9804007

 Al 
  0.9830912  0.0013254  0.5025494

 Al 
  0.9962799  0.2408928  0.7461920

 Al 
  0.2567026  0.9943679  0.7349376

 Al 
  0.2315479  0.2476660  0.4919571

 Al 
  0.9918692  0.5041483  0.5031236

 Al 
  0.9927417  0.7316581  0.7576580

 Al 
  0.2394634  0.5197713  0.7472328

 Al 
  0.2340837  0.7560368  0.5087397

 Al 
  0.5146280  0.4931501  0.9982637

 Al 
  0.5053512  0.7583548  0.2602223

 Al 
  0.7344513  0.4984902  0.2553525

 Al 
  0.7500557  0.7482043  0.0231882

 Al 
  0.5264628  0.9892901  0.5086085

 Al 
  0.4801940  0.2435251  0.7509232

 Al 
  0.7481300  0.9989815  0.7537387

 Al 
  0.7253082  0.2623744  0.5011509

 Al 
  0.4893508  0.4901540  0.5020544

 Al 
  0.5207935  0.7386627  0.7544825

 Al 
  0.7426699  0.4984382  0.7439434

 Al 
  0.7498676  0.7560962  0.4929447

