32 
charge = 0 
 Al 
  0.0309910  0.9925041  0.0171848

 Al 
  0.0068115  0.2631961  0.2542696

 Al 
  0.2564031  0.0012029  0.2660648

 Al 
  0.2475608  0.2506769  0.9845763

 Al 
  0.5125278  0.9851876  0.9835417

 Al 
  0.4973640  0.2301520  0.2339872

 Al 
  0.7657282  0.0117445  0.2595169

 Al 
  0.7653483  0.2535073  0.9928518

 Al 
  0.9909509  0.5076345  0.9948369

 Al 
  0.9977650  0.7642332  0.2452341

 Al 
  0.2566630  0.5281372  0.2484481

 Al 
  0.2603101  0.7419311  0.9810047

 Al 
  0.9814613  0.0014789  0.5036211

 Al 
  0.9971685  0.2409831  0.7462007

 Al 
  0.2569625  0.9942206  0.7362086

 Al 
  0.2323672  0.2479296  0.4914856

 Al 
  0.9913098  0.5058710  0.5033179

 Al 
  0.9935795  0.7326110  0.7591146

 Al 
  0.2389597  0.5191810  0.7455869

 Al 
  0.2348498  0.7549577  0.5084216

 Al 
  0.5155512  0.4917108  0.9972464

 Al 
  0.5025902  0.7585008  0.2609351

 Al 
  0.7339612  0.4956203  0.2548017

 Al 
  0.7510210  0.7479667  0.0231226

 Al 
  0.5256052  0.9897951  0.5091580

 Al 
  0.4802609  0.2445423  0.7507673

 Al 
  0.7476350  0.9978095  0.7550752

 Al 
  0.7276991  0.2619016  0.4992835

 Al 
  0.4891441  0.4900438  0.5027969

 Al 
  0.5175474  0.7396057  0.7541322

 Al 
  0.7446376  0.4982662  0.7426501

 Al 
  0.7492612  0.7568945  0.4945597

