32 
charge = 0 
 Al 
  0.0271422  0.9914435  0.0112779

 Al 
  0.0057349  0.2654250  0.2559799

 Al 
  0.2581023  0.0008255  0.2660314

 Al 
  0.2484865  0.2480310  0.9779664

 Al 
  0.5112346  0.9873199  0.9856059

 Al 
  0.5017722  0.2323437  0.2362173

 Al 
  0.7663296  0.0112074  0.2636825

 Al 
  0.7638409  0.2534231  0.9932763

 Al 
  0.9898941  0.5080776  0.9977551

 Al 
  0.9957997  0.7630055  0.2456450

 Al 
  0.2564935  0.5247290  0.2507599

 Al 
  0.2601233  0.7407381  0.9800443

 Al 
  0.9848733  0.0012017  0.5016187

 Al 
  0.9954309  0.2408557  0.7461660

 Al 
  0.2563462  0.9945065  0.7338152

 Al 
  0.2309465  0.2475001  0.4925462

 Al 
  0.9924286  0.5024553  0.5028637

 Al 
  0.9917925  0.7311284  0.7561841

 Al 
  0.2400945  0.5199644  0.7487463

 Al 
  0.2334365  0.7570529  0.5089204

 Al 
  0.5136008  0.4945560  0.9992537

 Al 
  0.5079848  0.7582137  0.2594587

 Al 
  0.7350366  0.5012871  0.2559230

 Al 
  0.7491300  0.7485211  0.0230286

 Al 
  0.5269603  0.9889350  0.5080058

 Al 
  0.4803549  0.2426192  0.7509616

 Al 
  0.7488020  0.0001064  0.7525011

 Al 
  0.7231956  0.2626825  0.5030060

 Al 
  0.4894721  0.4904287  0.5013081

 Al 
  0.5238008  0.7377902  0.7547300

 Al 
  0.7408111  0.4985422  0.7452527

 Al 
  0.7505482  0.7550814  0.4914707

