32 
charge = 0 
 Al 
  0.0264517  0.9913173  0.0102322

 Al 
  0.0055208  0.2657703  0.2562002

 Al 
  0.2583696  0.0007351  0.2659881

 Al 
  0.2486152  0.2476251  0.9769937

 Al 
  0.5109846  0.9876962  0.9860106

 Al 
  0.5024838  0.2327496  0.2365984

 Al 
  0.7663581  0.0111319  0.2642530

 Al 
  0.7635563  0.2533587  0.9933691

 Al 
  0.9897579  0.5081073  0.9982724

 Al 
  0.9955473  0.7627209  0.2457774

 Al 
  0.2564291  0.5241102  0.2511212

 Al 
  0.2601010  0.7406131  0.9799800

 Al 
  0.9854958  0.0011670  0.5013415

 Al 
  0.9951562  0.2408581  0.7461524

 Al 
  0.2562089  0.9945473  0.7334761

 Al 
  0.2307955  0.2474667  0.4927652

 Al 
  0.9926118  0.5019021  0.5027672

 Al 
  0.9914522  0.7310418  0.7556940

 Al 
  0.2403322  0.5199408  0.7492154

 Al 
  0.2332484  0.7573697  0.5089476

 Al 
  0.5132370  0.4950126  0.9995780

 Al 
  0.5088226  0.7581679  0.2591939

 Al 
  0.7352544  0.5021942  0.2561173

 Al 
  0.7488342  0.7486449  0.0229221

 Al 
  0.5270457  0.9888483  0.5077954

 Al 
  0.4804614  0.2423457  0.7509467

 Al 
  0.7490607  0.0004690  0.7521138

 Al 
  0.7225595  0.2627494  0.5036174

 Al 
  0.4894919  0.4905574  0.5010618

 Al 
  0.5247401  0.7375229  0.7547906

 Al 
  0.7402233  0.4985582  0.7456908

 Al 
  0.7507908  0.7546978  0.4910190

