32 
charge = 0 
 Al 
  0.0348745  0.9947243  0.0232649

 Al 
  0.0076890  0.2601740  0.2512524

 Al 
  0.2540567  0.0011893  0.2657690

 Al 
  0.2461611  0.2545703  0.9945461

 Al 
  0.5134746  0.9830095  0.9821853

 Al 
  0.4916279  0.2280481  0.2314093

 Al 
  0.7638273  0.0124338  0.2524962

 Al 
  0.7667479  0.2527375  0.9926130

 Al 
  0.9929521  0.5063091  0.9918680

 Al 
  0.0011831  0.7643805  0.2458764

 Al 
  0.2562014  0.5313487  0.2451624

 Al 
  0.2606616  0.7443604  0.9836567

 Al 
  0.9781335  0.0019615  0.5069204

 Al 
  0.9996720  0.2414484  0.7461685

 Al 
  0.2570925  0.9939001  0.7400970

 Al 
  0.2353955  0.2490533  0.4908656

 Al 
  0.9899844  0.5103089  0.5033439

 Al 
  0.9952403  0.7371912  0.7626281

 Al 
  0.2382580  0.5158049  0.7410042

 Al 
  0.2372717  0.7521558  0.5070492

 Al 
  0.5173593  0.4880451  0.9945448

 Al 
  0.4953604  0.7589166  0.2624462

 Al 
  0.7331172  0.4882741  0.2534342

 Al 
  0.7535568  0.7476759  0.0220125

 Al 
  0.5217997  0.9918729  0.5102359

 Al 
  0.4814093  0.2475261  0.7499084

 Al 
  0.7473157  0.9946315  0.7588201

 Al 
  0.7349030  0.2599017  0.4946055

 Al 
  0.4883372  0.4904770  0.5045480

 Al 
  0.5084105  0.7420660  0.7526855

 Al 
  0.7499010  0.4976449  0.7394436

 Al 
  0.7480249  0.7578622  0.4991362

