32 
charge = 0 
 Al 
  0.0326556  0.9932380  0.0197738

 Al 
  0.0072162  0.2620353  0.2532016

 Al 
  0.2555158  0.0012697  0.2659745

 Al 
  0.2470360  0.2521088  0.9882555

 Al 
  0.5130043  0.9842545  0.9828164

 Al 
  0.4951426  0.2292374  0.2329439

 Al 
  0.7651490  0.0120303  0.2570195

 Al 
  0.7659608  0.2533377  0.9927231

 Al 
  0.9916291  0.5072336  0.9935672

 Al 
  0.9989840  0.7644956  0.2453084

 Al 
  0.2565875  0.5295641  0.2472229

 Al 
  0.2604327  0.7427652  0.9818388

 Al 
  0.9800220  0.0016546  0.5048079

 Al 
  0.9980904  0.2411230  0.7461945

 Al 
  0.2571135  0.9940783  0.7376033

 Al 
  0.2333808  0.2482860  0.4911415

 Al 
  0.9907715  0.5075875  0.5034206

 Al 
  0.9942985  0.7339958  0.7605180

 Al 
  0.2385909  0.5182008  0.7438629

 Al 
  0.2357099  0.7538661  0.5079798

 Al 
  0.5163494  0.4902802  0.9962180

 Al 
  0.4997970  0.7586518  0.2615786

 Al 
  0.7335664  0.4927627  0.2542708

 Al 
  0.7519974  0.7478033  0.0228491

 Al 
  0.5244109  0.9904547  0.5096357

 Al 
  0.4805406  0.2456401  0.7505086

 Al 
  0.7473392  0.9966116  0.7564749

 Al 
  0.7303054  0.2612692  0.4974494

 Al 
  0.4888706  0.4900896  0.5035097

 Al 
  0.5141478  0.7405661  0.7536743

 Al 
  0.7466474  0.4980521  0.7413915

 Al 
  0.7487340  0.7574576  0.4962650

