32 
charge = 0 
 Al 
  0.0366368  0.9994716  0.0265494

 Al 
  0.0078152  0.2565306  0.2465670

 Al 
  0.2508675  0.0000792  0.2657034

 Al 
  0.2445238  0.2609302  0.0088758

 Al 
  0.5125947  0.9820170  0.9840936

 Al 
  0.4849785  0.2271212  0.2292820

 Al 
  0.7590453  0.0124387  0.2408445

 Al 
  0.7674385  0.2497401  0.9925437

 Al 
  0.9970855  0.5028773  0.9901540

 Al 
  0.0063079  0.7613324  0.2494567

 Al 
  0.2538921  0.5315801  0.2402851

 Al 
  0.2612222  0.7485186  0.9898136

 Al 
  0.9764343  0.0025556  0.5120464

 Al 
  0.0037882  0.2427838  0.7461301

 Al 
  0.2555158  0.9942132  0.7465744

 Al 
  0.2413717  0.2516014  0.4916279

 Al 
  0.9890389  0.5157529  0.5015074

 Al 
  0.9966202  0.7490669  0.7661737

 Al 
  0.2385030  0.5067088  0.7352495

 Al 
  0.2413284  0.7492859  0.5044750

 Al 
  0.5179187  0.4840800  0.9909497

 Al 
  0.4872556  0.7595651  0.2632407

 Al 
  0.7329885  0.4799243  0.2513316

 Al 
  0.7566965  0.7476363  0.0185548

 Al 
  0.5129882  0.9970100  0.5105985

 Al 
  0.4851938  0.2516521  0.7479877

 Al 
  0.7496349  0.9901292  0.7638421

 Al 
  0.7464371  0.2549787  0.4894312

 Al 
  0.4872432  0.4927677  0.5056680

 Al 
  0.4951339  0.7445832  0.7490731

 Al 
  0.7565999  0.4966177  0.7358559

 Al 
  0.7468987  0.7564465  0.5055133

