32 
charge = 0 
 Al 
  0.0366653  0.9975583  0.0262673

 Al 
  0.0079439  0.2576927  0.2481956

 Al 
  0.2519739  0.0006299  0.2655920

 Al 
  0.2450015  0.2584983  0.0038835

 Al 
  0.5132914  0.9820083  0.9827806

 Al 
  0.4870378  0.2271076  0.2297436

 Al 
  0.7610564  0.0126603  0.2451562

 Al 
  0.7673890  0.2510891  0.9925796

 Al 
  0.9954074  0.5043216  0.9903841

 Al 
  0.0045567  0.7628954  0.2477922

 Al 
  0.2549676  0.5322930  0.2420548

 Al 
  0.2610267  0.7469989  0.9872766

 Al 
  0.9765606  0.0023873  0.5102148

 Al 
  0.0022078  0.2421885  0.7461339

 Al 
  0.2563648  0.9939174  0.7441463

 Al 
  0.2390290  0.2505643  0.4911217

 Al 
  0.9891911  0.5139696  0.5024962

 Al 
  0.9962093  0.7440399  0.7651490

 Al 
  0.2382753  0.5105601  0.7370798

 Al 
  0.2398062  0.7500755  0.5054044

 Al 
  0.5180523  0.4852408  0.9921848

 Al 
  0.4896874  0.7593362  0.2631875

 Al 
  0.7328820  0.4825033  0.2521633

 Al 
  0.7556569  0.7476660  0.0200324

 Al 
  0.5166019  0.9948183  0.5106468

 Al 
  0.4835441  0.2502673  0.7487402

 Al 
  0.7483949  0.9917331  0.7621578

 Al 
  0.7421687  0.2570776  0.4910079

 Al 
  0.4875538  0.4917133  0.5055505

 Al 
  0.4998725  0.7438827  0.7506188

 Al 
  0.7543674  0.4969878  0.7369511

 Al 
  0.7472551  0.7573202  0.5033068

