32 
charge = 0 
 Al 
  0.0367531  0.9986981  0.0265754

 Al 
  0.0078932  0.2569588  0.2471845

 Al 
  0.2512933  0.0003143  0.2656354

 Al 
  0.2446884  0.2599562  0.0069613

 Al 
  0.5129276  0.9819563  0.9834860

 Al 
  0.4857260  0.2270618  0.2294119

 Al 
  0.7598733  0.0125650  0.2425375

 Al 
  0.7674484  0.2503044  0.9925647

 Al 
  0.9964024  0.5034689  0.9901898

 Al 
  0.0056495  0.7620068  0.2487562

 Al 
  0.2543463  0.5319898  0.2409782

 Al 
  0.2611492  0.7479258  0.9887753

 Al 
  0.9764096  0.0024999  0.5113385

 Al 
  0.0031545  0.2425338  0.7461289

 Al 
  0.2558896  0.9940634  0.7456153

 Al 
  0.2404312  0.2511806  0.4913977

 Al 
  0.9890674  0.5150846  0.5019454

 Al 
  0.9964655  0.7469977  0.7658111

 Al 
  0.2383966  0.5082941  0.7359203

 Al 
  0.2407245  0.7495545  0.5048302

 Al 
  0.5180239  0.4844884  0.9914225

 Al 
  0.4881268  0.7594785  0.2632568

 Al 
  0.7329241  0.4808636  0.2516744

 Al 
  0.7563029  0.7476585  0.0191637

 Al 
  0.5144622  0.9961017  0.5106430

 Al 
  0.4845082  0.2511311  0.7482872

 Al 
  0.7490941  0.9907529  0.7632060

 Al 
  0.7447540  0.2558500  0.4900017

 Al 
  0.4873459  0.4923222  0.5056705

 Al 
  0.4969791  0.7443419  0.7497141

 Al 
  0.7557547  0.4967613  0.7362507

 Al 
  0.7470360  0.7568351  0.5046668

