32 
charge = 0 
 Al 
  0.0359858  0.0010507  0.0259740

 Al 
  0.0075528  0.2558116  0.2454841

 Al 
  0.2500631  0.9995545  0.2659324

 Al 
  0.2443060  0.2628979  0.0123843

 Al 
  0.5117148  0.9823709  0.9856269

 Al 
  0.4837867  0.2274640  0.2292473

 Al 
  0.7572942  0.0120242  0.2375860

 Al 
  0.7673024  0.2485224  0.9924645

 Al 
  0.9984964  0.5016546  0.9902901

 Al 
  0.0074353  0.7598102  0.2509727

 Al 
  0.2529021  0.5302485  0.2389473

 Al 
  0.2613460  0.7496423  0.9919905

 Al 
  0.9767771  0.0026113  0.5133570

 Al 
  0.0050802  0.2433370  0.7461438

 Al 
  0.2546347  0.9946624  0.7484568

 Al 
  0.2432664  0.2524640  0.4921873

 Al 
  0.9891107  0.5169125  0.5004579

 Al 
  0.9969271  0.7534206  0.7667306

 Al 
  0.2387704  0.5033674  0.7341518

 Al 
  0.2425264  0.7489369  0.5038525

 Al 
  0.5175078  0.4834872  0.9900797

 Al 
  0.4859066  0.7597124  0.2630625

 Al 
  0.7332038  0.4783897  0.2505878

 Al 
  0.7574118  0.7475236  0.0172677

 Al 
  0.5099178  0.9989592  0.5104215

 Al 
  0.4866727  0.2525630  0.7473900

 Al 
  0.7508811  0.9889461  0.7649733

 Al 
  0.7497364  0.2531001  0.4885179

 Al 
  0.4871430  0.4937553  0.5054589

 Al 
  0.4916118  0.7449124  0.7476932

 Al 
  0.7581135  0.4963529  0.7352359

 Al 
  0.7466165  0.7555344  0.5070739

