32 
charge = 0 
 Al 
  0.0351257  0.0022586  0.0251015

 Al 
  0.0072558  0.2553896  0.2448183

 Al 
  0.2494876  0.9991189  0.2661811

 Al 
  0.2442503  0.2643953  0.0147431

 Al 
  0.5108559  0.9828424  0.9870501

 Al 
  0.4831605  0.2279244  0.2294268

 Al 
  0.7558896  0.0115564  0.2352495

 Al 
  0.7670957  0.2475323  0.9923605

 Al 
  0.9995953  0.5007178  0.9905549

 Al 
  0.0080986  0.7585318  0.2521942

 Al 
  0.2520952  0.5287808  0.2379870

 Al 
  0.2614103  0.7504356  0.9937231

 Al 
  0.9772969  0.0025964  0.5142443

 Al 
  0.0060777  0.2438010  0.7461673

 Al 
  0.2538624  0.9951463  0.7498416

 Al 
  0.2447057  0.2531261  0.4926860

 Al 
  0.9892839  0.5176303  0.4995161

 Al 
  0.9971821  0.7568610  0.7670128

 Al 
  0.2390129  0.5007141  0.7335441

 Al 
  0.2434261  0.7488367  0.5034751

 Al 
  0.5170202  0.4832409  0.9894857

 Al 
  0.4852272  0.7597891  0.2627976

 Al 
  0.7334414  0.4775271  0.2499592

 Al 
  0.7578969  0.7473566  0.0162381

 Al 
  0.5074934  0.0005433  0.5102198

 Al 
  0.4878917  0.2531248  0.7469445

 Al 
  0.7519380  0.9881194  0.7657071

 Al 
  0.7521744  0.2515593  0.4880278

 Al 
  0.4871764  0.4945869  0.5051161

 Al 
  0.4890835  0.7450349  0.7465720

 Al 
  0.7591146  0.4961722  0.7349215

 Al 
  0.7463789  0.7547485  0.5081345

