32 
charge = 0 
 Al 
  0.0365267  0.9998626  0.0264702

 Al 
  0.0077632  0.2563338  0.2462774

 Al 
  0.2506609  0.9999542  0.2657480

 Al 
  0.2444545  0.2614202  0.0097916

 Al 
  0.5124029  0.9820764  0.9844364

 Al 
  0.4846431  0.2271793  0.2292448

 Al 
  0.7586196  0.0123558  0.2400153

 Al 
  0.7674199  0.2494468  0.9925288

 Al 
  0.9974321  0.5025754  0.9901626

 Al 
  0.0066135  0.7609735  0.2498218

 Al 
  0.2536545  0.5313128  0.2399448

 Al 
  0.2612569  0.7488070  0.9903445

 Al 
  0.9764826  0.0025766  0.5123868

 Al 
  0.0041087  0.2429162  0.7461326

 Al 
  0.2553116  0.9943060  0.7470497

 Al 
  0.2418432  0.2518143  0.4917554

 Al 
  0.9890401  0.5160648  0.5012673

 Al 
  0.9966969  0.7501287  0.7663333

 Al 
  0.2385637  0.5058945  0.7349438

 Al 
  0.2416279  0.7491745  0.5043080

 Al 
  0.5178419  0.4839043  0.9907232

 Al 
  0.4868707  0.7596060  0.2632147

 Al 
  0.7330318  0.4794985  0.2511546

 Al 
  0.7568833  0.7476177  0.0182417

 Al 
  0.5122370  0.9974803  0.5105651

 Al 
  0.4855490  0.2518972  0.7478380

 Al 
  0.7499270  0.9898248  0.7641429

 Al 
  0.7472687  0.2545270  0.4891750

 Al 
  0.4872036  0.4930016  0.5056408

 Al 
  0.4942342  0.7446834  0.7487402

 Al 
  0.7569984  0.4965484  0.7356802

 Al 
  0.7468294  0.7562336  0.5059205

