32 
charge = 0 
 Al 
  0.0284144  0.0071890  0.0182578

 Al 
  0.0050715  0.2545753  0.2437899

 Al 
  0.2471784  0.9971635  0.2675870

 Al 
  0.2451686  0.2701092  0.0214296

 Al 
  0.5056012  0.9865254  0.9947144

 Al 
  0.4831060  0.2316482  0.2321890

 Al 
  0.7496102  0.0081246  0.2271608

 Al 
  0.7653792  0.2431649  0.9913074

 Al 
  0.0040592  0.4972910  0.9926860

 Al 
  0.0087619  0.7527424  0.2573103

 Al 
  0.2486313  0.5189013  0.2348498

 Al 
  0.2612593  0.7532263  0.0015222

 Al 
  0.9818487  0.0018205  0.5166254

 Al 
  0.0101517  0.2460509  0.7464717

 Al 
  0.2501807  0.9986164  0.7551693

 Al 
  0.2504777  0.2557670  0.4951376

 Al 
  0.9911465  0.5189892  0.4945943

 Al 
  0.9990199  0.7712155  0.7670932

 Al 
  0.2402827  0.4893050  0.7331333

 Al 
  0.2469593  0.7497438  0.5029503

 Al 
  0.5135092  0.4841716  0.9875489

 Al 
  0.4853027  0.7596567  0.2606133

 Al 
  0.7351208  0.4764677  0.2466821

 Al 
  0.7594909  0.7455683  0.0115737

 Al 
  0.4968021  0.0077843  0.5088993

 Al 
  0.4939421  0.2541508  0.7452230

 Al 
  0.7565356  0.9857297  0.7677838

 Al 
  0.7616145  0.2443196  0.4877110

 Al 
  0.4885340  0.4986139  0.5019640

 Al 
  0.4797597  0.7447057  0.7416031

 Al 
  0.7621652  0.4955943  0.7350502

 Al 
  0.7449149  0.7510705  0.5113658

