32 
charge = 0 
 Al 
  0.0324105  0.0047238  0.0222885

 Al 
  0.0063697  0.2548215  0.2439384

 Al 
  0.2483528  0.9981610  0.2668395

 Al 
  0.2444607  0.2673902  0.0187082

 Al 
  0.5085949  0.9843337  0.9905537

 Al 
  0.4826259  0.2294008  0.2303735

 Al 
  0.7528476  0.0101641  0.2308883

 Al 
  0.7664113  0.2453901  0.9919831

 Al 
  0.0018588  0.4988837  0.9914447

 Al 
  0.0088671  0.7557076  0.2547659

 Al 
  0.2503651  0.5246027  0.2362173

 Al 
  0.2614363  0.7519083  0.9974741

 Al 
  0.9790617  0.0023687  0.5157158

 Al 
  0.0081370  0.2448555  0.7462675

 Al 
  0.2520853  0.9965583  0.7525618

 Al 
  0.2476189  0.2544676  0.4938543

 Al 
  0.9899696  0.5186451  0.4972477

 Al 
  0.9978838  0.7640637  0.7672553

 Al 
  0.2395896  0.4950844  0.7329142

 Al 
  0.2452341  0.7490421  0.5030011

 Al 
  0.5155698  0.4833053  0.9884300

 Al 
  0.4847112  0.7598275  0.2619276

 Al 
  0.7341307  0.4765210  0.2484728

 Al 
  0.7587657  0.7467155  0.0140055

 Al 
  0.5023068  0.0040208  0.5096530

 Al 
  0.4906713  0.2539045  0.7460596

 Al 
  0.7542510  0.9866875  0.7669125

 Al 
  0.7569922  0.2481214  0.4875377

 Al 
  0.4875897  0.4964853  0.5039070

 Al 
  0.4842434  0.7450040  0.7441302

 Al 
  0.7608200  0.4958591  0.7346951

 Al 
  0.7457688  0.7529726  0.5099760

