32 
charge = 0 
 Al 
  0.0329551  0.0043104  0.0228516

 Al 
  0.0065455  0.2548921  0.2440387

 Al 
  0.2485434  0.9983268  0.2667182

 Al 
  0.2443926  0.2668989  0.0181241

 Al 
  0.5090231  0.9840342  0.9899151

 Al 
  0.4826457  0.2291013  0.2301569

 Al 
  0.7533748  0.0104413  0.2315801

 Al 
  0.7665512  0.2457589  0.9920647

 Al 
  0.0014789  0.4991795  0.9912678

 Al 
  0.0087954  0.7561965  0.2543315

 Al 
  0.2506596  0.5254133  0.2364932

 Al 
  0.2614437  0.7516732  0.9968232

 Al 
  0.9786966  0.0024269  0.5155029

 Al 
  0.0077905  0.2446686  0.7462440

 Al 
  0.2523984  0.9962786  0.7521138

 Al 
  0.2471313  0.2542448  0.4936476

 Al 
  0.9898223  0.5185189  0.4976585

 Al 
  0.9977427  0.7628471  0.7672430

 Al 
  0.2394857  0.4960460  0.7329625

 Al 
  0.2449334  0.7489716  0.5030518

 Al 
  0.5158557  0.4832409  0.9885934

 Al 
  0.4847186  0.7598337  0.2621046

 Al 
  0.7339958  0.4766224  0.2487426

 Al 
  0.7586308  0.7468541  0.0143929

 Al 
  0.5032003  0.0034157  0.5097619

 Al 
  0.4901738  0.2538092  0.7462056

 Al 
  0.7538550  0.9869004  0.7667356

 Al 
  0.7561965  0.2487253  0.4875736

 Al 
  0.4874845  0.4961487  0.5041594

 Al 
  0.4850304  0.7450312  0.7445510

 Al 
  0.7605614  0.4959074  0.7346938

 Al 
  0.7458863  0.7532833  0.5096963

