32 
charge = 0 
 Al 
  0.0305604  0.0059638  0.0204000

 Al 
  0.0057708  0.2546631  0.2437639

 Al 
  0.2477749  0.9976585  0.2672145

 Al 
  0.2447490  0.2688147  0.0202490

 Al 
  0.5071853  0.9853497  0.9925783

 Al 
  0.4827372  0.2304304  0.2311692

 Al 
  0.7512388  0.0092248  0.2289218

 Al 
  0.7659361  0.2442726  0.9916861

 Al 
  0.0029825  0.4980397  0.9920338

 Al 
  0.0089315  0.7542213  0.2560603

 Al 
  0.2494839  0.5219160  0.2354624

 Al 
  0.2613781  0.7525877  0.9994753

 Al 
  0.9803277  0.0021373  0.5162541

 Al 
  0.0091654  0.2454408  0.7463541

 Al 
  0.2511299  0.9975063  0.7538859

 Al 
  0.2490681  0.2551297  0.4944928

 Al 
  0.9904968  0.5189112  0.4959519

 Al 
  0.9983862  0.7676984  0.7672232

 Al 
  0.2399213  0.4921811  0.7329130

 Al 
  0.2461190  0.7493379  0.5029219

 Al 
  0.5146094  0.4836357  0.9879659

 Al 
  0.4848708  0.7597718  0.2613212

 Al 
  0.7345886  0.4763774  0.2476103

 Al 
  0.7591493  0.7462093  0.0128088

 Al 
  0.4995730  0.0058846  0.5092966

 Al 
  0.4922479  0.2540988  0.7456314

 Al 
  0.7554255  0.9861331  0.7673902

 Al 
  0.7593448  0.2462502  0.4875415

 Al 
  0.4879932  0.4975323  0.5030258

 Al 
  0.4819427  0.7448790  0.7428568

 Al 
  0.7615366  0.4957230  0.7347978

 Al 
  0.7453740  0.7520222  0.5107359

