32 
charge = 0 
 Al 
  0.0243330  0.0091518  0.0143347

 Al 
  0.0037201  0.2545369  0.2442899

 Al 
  0.2461339  0.9964049  0.2681130

 Al 
  0.2461524  0.2717588  0.0224741

 Al 
  0.5026410  0.9887642  0.9983194

 Al 
  0.4842693  0.2340478  0.2343535

 Al 
  0.7469754  0.0059824  0.2248354

 Al 
  0.7643000  0.2414559  0.9905042

 Al 
  0.0056334  0.4963418  0.9938270

 Al 
  0.0079575  0.7504282  0.2591716

 Al 
  0.2473665  0.5134139  0.2342780

 Al 
  0.2608943  0.7541768  0.0049168

 Al 
  0.9848955  0.0011101  0.5167962

 Al 
  0.0115910  0.2470794  0.7467378

 Al 
  0.2487426  0.0007995  0.7571680

 Al 
  0.2526335  0.2567274  0.4961487

 Al 
  0.9924818  0.5186525  0.4923259

 Al 
  0.0004047  0.7764715  0.7666823

 Al 
  0.2409571  0.4848176  0.7339958

 Al 
  0.2481721  0.7506089  0.5032102

 Al 
  0.5114215  0.4855020  0.9869635

 Al 
  0.4865786  0.7593188  0.2592582

 Al 
  0.7361641  0.4771039  0.2450411

 Al 
  0.7599352  0.7442144  0.0094760

 Al 
  0.4922801  0.0108819  0.5081704

 Al 
  0.4969717  0.2539231  0.7446178

 Al 
  0.7580578  0.9854747  0.7682380

 Al 
  0.7650710  0.2411131  0.4883422

 Al 
  0.4897146  0.5003973  0.4998379

 Al 
  0.4764975  0.7443753  0.7397121

 Al 
  0.7630266  0.4953901  0.7357866

 Al 
  0.7440250  0.7495755  0.5120774

