32 
charge = 0 
 Al 
  0.0260272  0.0083820  0.0159373

 Al 
  0.0042844  0.2545406  0.2440226

 Al 
  0.2465608  0.9966932  0.2679236

 Al 
  0.2457180  0.2711920  0.0222031

 Al 
  0.5038661  0.9878335  0.9968875

 Al 
  0.4837261  0.2330380  0.2334229

 Al 
  0.7480063  0.0068808  0.2256633

 Al 
  0.7647517  0.2421093  0.9908495

 Al 
  0.0050443  0.4966697  0.9933691

 Al 
  0.0083560  0.7513205  0.2584699

 Al 
  0.2478417  0.5156527  0.2344290

 Al 
  0.2610675  0.7538154  0.0035728

 Al 
  0.9836060  0.0014195  0.5167987

 Al 
  0.0110551  0.2466697  0.7466215

 Al 
  0.2492859  0.9998800  0.7563932

 Al 
  0.2518093  0.2563623  0.4957601

 Al 
  0.9919125  0.5188592  0.4932231

 Al 
  0.9998008  0.7744876  0.7668742

 Al 
  0.2406750  0.4865465  0.7335775

 Al 
  0.2477229  0.7502413  0.5030778

 Al 
  0.5122878  0.4849079  0.9871813

 Al 
  0.4859908  0.7594760  0.2598213

 Al 
  0.7357247  0.4767809  0.2457057

 Al 
  0.7597780  0.7447960  0.0103163

 Al 
  0.4940585  0.0096654  0.5084699

 Al 
  0.4957354  0.2540604  0.7448456

 Al 
  0.7575120  0.9855094  0.7680882

 Al 
  0.7637493  0.2423828  0.4880402

 Al 
  0.4892047  0.4996956  0.5007363

 Al 
  0.4777363  0.7445089  0.7404262

 Al 
  0.7627098  0.4954718  0.7354463

 Al 
  0.7443963  0.7501510  0.5118472

