32 
charge = 0 
 Al 
  0.0198926  0.0109599  0.0103213

 Al 
  0.0022214  0.2545542  0.2453047

 Al 
  0.2450089  0.9958071  0.2683927

 Al 
  0.2474444  0.2724877  0.0222687

 Al 
  0.4993973  0.9912282  0.0016880

 Al 
  0.4860292  0.2368063  0.2370019

 Al 
  0.7446178  0.0035506  0.2234382

 Al 
  0.7630761  0.2400809  0.9895302

 Al 
  0.0068029  0.4958604  0.9949223

 Al 
  0.0065616  0.7484716  0.2606084

 Al 
  0.2464086  0.5078004  0.2344315

 Al 
  0.2602767  0.7549577  0.0081097

 Al 
  0.9884523  0.0002153  0.5163519

 Al 
  0.0126318  0.2480570  0.7470769

 Al 
  0.2476635  0.0033253  0.7589426

 Al 
  0.2544070  0.2575120  0.4969841

 Al 
  0.9940634  0.5177046  0.4902443

 Al 
  0.0022029  0.7805158  0.7660722

 Al 
  0.2417554  0.4810418  0.7354289

 Al 
  0.2490372  0.7515952  0.5036533

 Al 
  0.5091320  0.4873150  0.9865168

 Al 
  0.4884276  0.7587916  0.2577806

 Al 
  0.7373744  0.4782498  0.2433778

 Al 
  0.7601975  0.7425660  0.0073944

 Al 
  0.4881553  0.0136825  0.5074019

 Al 
  0.5001572  0.2533451  0.7441426

 Al 
  0.7589389  0.9857990  0.7684100

 Al 
  0.7679360  0.2381206  0.4893582

 Al 
  0.4911663  0.5020172  0.4973850

 Al 
  0.4738540  0.7440770  0.7382691

 Al 
  0.7636714  0.4951772  0.7368645

 Al 
  0.7430375  0.7483268  0.5123274

