32 
charge = 0 
 Al 
  0.0189867  0.0113002  0.0095391

 Al 
  0.0019133  0.2545555  0.2455609

 Al 
  0.2447738  0.9957131  0.2684087

 Al 
  0.2477328  0.2725026  0.0220781

 Al 
  0.4987253  0.9917380  0.0023118

 Al 
  0.4864425  0.2373905  0.2375786

 Al 
  0.7441921  0.0030395  0.2232786

 Al 
  0.7628162  0.2398594  0.9893223

 Al 
  0.0069811  0.4958232  0.9951277

 Al 
  0.0062200  0.7481338  0.2608349

 Al 
  0.2462613  0.5067026  0.2345602

 Al 
  0.2601183  0.7550913  0.0087112

 Al 
  0.9892109  0.0000198  0.5161873

 Al 
  0.0127815  0.2482402  0.7471511

 Al 
  0.2475051  0.0038649  0.7592681

 Al 
  0.2547052  0.2576457  0.4971239

 Al 
  0.9944025  0.5174422  0.4898668

 Al 
  0.0026088  0.7811482  0.7659299

 Al 
  0.2419348  0.4803970  0.7357779

 Al 
  0.2491609  0.7517969  0.5037548

 Al 
  0.5086605  0.4877283  0.9864425

 Al 
  0.4888520  0.7586642  0.2574786

 Al 
  0.7376343  0.4785295  0.2430498

 Al 
  0.7602272  0.7422095  0.0069836

 Al 
  0.4873979  0.0141887  0.5072459

 Al 
  0.5008044  0.2531941  0.7440659

 Al 
  0.7590218  0.9859339  0.7684087

 Al 
  0.7684248  0.2375625  0.4896020

 Al 
  0.4914806  0.5023105  0.4968677

 Al 
  0.4734097  0.7440288  0.7380489

 Al 
  0.7637778  0.4951314  0.7371145

 Al 
  0.7428345  0.7481152  0.5123212

