32 
charge = 0 
 Al 
  0.0108509  0.0140278  0.0032127

 Al 
  0.9991597  0.2543587  0.2483887

 Al 
  0.2424657  0.9953121  0.2677801

 Al 
  0.2507079  0.2704668  0.0183234

 Al 
  0.4924236  0.9964989  0.0070244

 Al 
  0.4908804  0.2430028  0.2432417

 Al 
  0.7411774  0.9981969  0.2236275

 Al 
  0.7602421  0.2388223  0.9874177

 Al 
  0.0077249  0.4963430  0.9967192

 Al 
  0.0023811  0.7459680  0.2618645

 Al 
  0.2456128  0.4976796  0.2372271

 Al 
  0.2581147  0.7559712  0.0134870

 Al 
  0.9965484  0.9981375  0.5136404

 Al 
  0.0131466  0.2496943  0.7478405

 Al 
  0.2470818  0.0091369  0.7617977

 Al 
  0.2564663  0.2585367  0.4979568

 Al 
  0.9976907  0.5140265  0.4872420

 Al 
  0.0068623  0.7839909  0.7644411

 Al 
  0.2439669  0.4764319  0.7396787

 Al 
  0.2494889  0.7534961  0.5046644

 Al 
  0.5042919  0.4920722  0.9859871

 Al 
  0.4932602  0.7571841  0.2547671

 Al 
  0.7402579  0.4816296  0.2402344

 Al 
  0.7601381  0.7387221  0.0033476

 Al 
  0.4818066  0.0177615  0.5058537

 Al 
  0.5067051  0.2514801  0.7436241

 Al 
  0.7582941  0.9880414  0.7677714

 Al 
  0.7714989  0.2332446  0.4923308

 Al 
  0.4945263  0.5043711  0.4920165

 Al 
  0.4707032  0.7438654  0.7372655

 Al 
  0.7644547  0.4946451  0.7397443

 Al 
  0.7410710  0.7468863  0.5114796

