32 
charge = 0 
 Al 
  0.0144461  0.0128905  0.0058388

 Al 
  0.0003676  0.2545047  0.2470360

 Al 
  0.2435325  0.9953864  0.2682429

 Al 
  0.2493107  0.2718566  0.0204198

 Al 
  0.4952737  0.9943468  0.0051346

 Al 
  0.4887617  0.2404386  0.2406329

 Al 
  0.7423321  0.0003923  0.2230818

 Al 
  0.7614437  0.2390599  0.9882555

 Al 
  0.0075776  0.4959321  0.9960695

 Al 
  0.0042436  0.7467365  0.2616331

 Al 
  0.2457514  0.5014752  0.2357111

 Al 
  0.2591406  0.7556532  0.0115069

 Al 
  0.9931885  0.9989914  0.5150030

 Al 
  0.0132085  0.2490916  0.7475373

 Al 
  0.2470398  0.0067064  0.7607581

 Al 
  0.2558920  0.2582038  0.4976783

 Al 
  0.9961858  0.5157740  0.4882246

 Al 
  0.0048488  0.7833659  0.7651465

 Al 
  0.2429595  0.4777771  0.7377877

 Al 
  0.2495161  0.7527771  0.5042758

 Al 
  0.5062546  0.4900104  0.9861455

 Al 
  0.4911898  0.7579130  0.2559675

 Al 
  0.7390265  0.4801359  0.2414534

 Al 
  0.7602544  0.7403185  0.0049564

 Al 
  0.4840119  0.0164064  0.5064712

 Al 
  0.5040703  0.2523068  0.7437664

 Al 
  0.7589476  0.9869214  0.7681996

 Al 
  0.7704309  0.2350032  0.4910042

 Al 
  0.4931340  0.5035914  0.4941983

 Al 
  0.4716202  0.7438716  0.7373410

 Al 
  0.7642097  0.4948802  0.7385006

 Al 
  0.7418308  0.7472798  0.5120217

