32 
charge = 0 
 Al 
  0.0126417  0.0134746  0.0044837

 Al 
  0.9997574  0.2544466  0.2476981

 Al 
  0.2430078  0.9953282  0.2680498

 Al 
  0.2499963  0.2712576  0.0194508

 Al 
  0.4938567  0.9954161  0.0061197

 Al 
  0.4897938  0.2417096  0.2419224

 Al 
  0.7417170  0.9993008  0.2232798

 Al 
  0.7608547  0.2388941  0.9878298

 Al 
  0.0076853  0.4961042  0.9964049

 Al 
  0.0033402  0.7463145  0.2617940

 Al 
  0.2456537  0.4995310  0.2364054

 Al 
  0.2586567  0.7558264  0.0125254

 Al 
  0.9948530  0.9985657  0.5143656

 Al 
  0.0132234  0.2494010  0.7476919

 Al 
  0.2470138  0.0079055  0.7612940

 Al 
  0.2562212  0.2583808  0.4978343

 Al 
  0.9969308  0.5149448  0.4876937

 Al 
  0.0058339  0.7838053  0.7648012

 Al 
  0.2434397  0.4770197  0.7387048

 Al 
  0.2495372  0.7531459  0.5044763

 Al 
  0.5052770  0.4910165  0.9860576

 Al 
  0.4922071  0.7575615  0.2553661

 Al 
  0.7396280  0.4808623  0.2408371

 Al 
  0.7602124  0.7395265  0.0041520

 Al 
  0.4828511  0.0171328  0.5061631

 Al 
  0.5053859  0.2519021  0.7436847

 Al 
  0.7586852  0.9874499  0.7680164

 Al 
  0.7710237  0.2340924  0.4916465

 Al 
  0.4938246  0.5040097  0.4931093

 Al 
  0.4711054  0.7438543  0.7372482

 Al 
  0.7643421  0.4947663  0.7391095

 Al 
  0.7414447  0.7470521  0.5117828

