32 
charge = 0 
 Al 
  0.0117445  0.0137543  0.0038364

 Al 
  0.9994567  0.2544070  0.2480409

 Al 
  0.2427392  0.9953146  0.2679249

 Al 
  0.2503490  0.2708863  0.0189050

 Al 
  0.4931414  0.9959556  0.0065826

 Al 
  0.4903309  0.2423531  0.2425783

 Al 
  0.7414373  0.9987501  0.2234357

 Al 
  0.7605515  0.2388471  0.9876219

 Al 
  0.0077137  0.4962155  0.9965645

 Al 
  0.0028674  0.7461314  0.2618398

 Al 
  0.2456265  0.4985929  0.2368014

 Al 
  0.2583931  0.7559019  0.0130130

 Al 
  0.9956970  0.9983516  0.5140142

 Al 
  0.0131961  0.2495495  0.7477674

 Al 
  0.2470360  0.0085169  0.7615502

 Al 
  0.2563536  0.2584612  0.4978999

 Al 
  0.9973095  0.5144968  0.4874573

 Al 
  0.0063425  0.7839290  0.7646230

 Al 
  0.2436971  0.4767041  0.7391849

 Al 
  0.2495211  0.7533241  0.5045728

 Al 
  0.5047844  0.4915388  0.9860205

 Al 
  0.4927293  0.7573759  0.2550666

 Al 
  0.7399386  0.4812410  0.2405339

 Al 
  0.7601790  0.7391255  0.0037498

 Al 
  0.4823140  0.0174595  0.5060084

 Al 
  0.5060455  0.2516930  0.7436525

 Al 
  0.7585058  0.9877382  0.7679013

 Al 
  0.7712762  0.2336605  0.4919831

 Al 
  0.4941736  0.5041978  0.4925622

 Al 
  0.4708901  0.7438555  0.7372432

 Al 
  0.7644003  0.4947069  0.7394238

 Al 
  0.7412554  0.7469618  0.5116393

