32 
charge = 0 
 Al 
  0.0153520  0.0125872  0.0065455

 Al 
  0.0006757  0.2545245  0.2467180

 Al 
  0.2437887  0.9954322  0.2683110

 Al 
  0.2489790  0.2720831  0.0208418

 Al 
  0.4959742  0.9938171  0.0046112

 Al 
  0.4882654  0.2398136  0.2400017

 Al 
  0.7426674  0.0009319  0.2230422

 Al 
  0.7617284  0.2391763  0.9884696

 Al 
  0.0074959  0.4958727  0.9958925

 Al 
  0.0046718  0.7469766  0.2615180

 Al 
  0.2458232  0.5024813  0.2354141

 Al 
  0.2593634  0.7555554  0.0109759

 Al 
  0.9923717  0.9992030  0.5152876

 Al 
  0.0131677  0.2489307  0.7474593

 Al 
  0.2470880  0.0061197  0.7604784

 Al 
  0.2556953  0.2581060  0.4975868

 Al 
  0.9958195  0.5161539  0.4885179

 Al 
  0.0043748  0.7830491  0.7653124

 Al 
  0.2427355  0.4782177  0.7373521

 Al 
  0.2494802  0.7525865  0.5041718

 Al 
  0.5067410  0.4895265  0.9861962

 Al 
  0.4906972  0.7580776  0.2562695

 Al 
  0.7387357  0.4797894  0.2417665

 Al 
  0.7602643  0.7407084  0.0053599

 Al 
  0.4846344  0.0160079  0.5066259

 Al 
  0.5034144  0.2524999  0.7438147

 Al 
  0.7590280  0.9866851  0.7682689

 Al 
  0.7700894  0.2354834  0.4907010

 Al 
  0.4927949  0.5033612  0.4947404

 Al 
  0.4719209  0.7438902  0.7374288

 Al 
  0.7641354  0.4949347  0.7382060

 Al 
  0.7420289  0.7474172  0.5121170

