32 
charge = 0 
 Al 
  0.0135414  0.0131862  0.0051507

 Al 
  0.0000619  0.2544800  0.2473640

 Al 
  0.2432714  0.9953517  0.2681563

 Al 
  0.2496498  0.2715819  0.0199557

 Al 
  0.4945671  0.9948790  0.0056371

 Al 
  0.4892703  0.2410710  0.2412739

 Al 
  0.7420152  0.9998490  0.2231622

 Al 
  0.7611529  0.2389659  0.9880414

 Al 
  0.0076407  0.4960101  0.9962403

 Al 
  0.0037993  0.7465163  0.2617247

 Al 
  0.2456958  0.5004913  0.2360428

 Al 
  0.2589055  0.7557435  0.0120229

 Al 
  0.9940164  0.9987798  0.5146961

 Al 
  0.0132271  0.2492488  0.7476152

 Al 
  0.2470150  0.0073016  0.7610304

 Al 
  0.2560665  0.2582954  0.4977612

 Al 
  0.9965571  0.5153705  0.4879499

 Al 
  0.0053351  0.7836171  0.7649757

 Al 
  0.2431946  0.4773774  0.7382382

 Al 
  0.2495347  0.7529640  0.5043773

 Al 
  0.5057670  0.4905067  0.9860997

 Al 
  0.4916935  0.7577410  0.2556668

 Al 
  0.7393235  0.4804935  0.2411440

 Al 
  0.7602371  0.7399250  0.0045542

 Al 
  0.4834179  0.0167813  0.5063165

 Al 
  0.5047275  0.2521076  0.7437231

 Al 
  0.7588325  0.9871776  0.7681154

 Al 
  0.7707428  0.2345404  0.4913197

 Al 
  0.4934780  0.5038067  0.4936550

 Al 
  0.4713480  0.7438592  0.7372803

 Al 
  0.7642778  0.4948245  0.7388013

 Al 
  0.7416366  0.7471586  0.5119103

