32 
charge = 0 
 Al 
  0.0082050  0.0147938  0.0014814

 Al 
  0.9982897  0.2541619  0.2494555

 Al 
  0.2416279  0.9953715  0.2672207

 Al 
  0.2518205  0.2689298  0.0163680

 Al 
  0.4902505  0.9981474  0.0082372

 Al 
  0.4925994  0.2449780  0.2452577

 Al 
  0.7405079  0.9965249  0.2244233

 Al 
  0.7592681  0.2388941  0.9868410

 Al 
  0.0076642  0.4968108  0.9971536

 Al 
  0.0008477  0.7455893  0.2618014

 Al 
  0.2456549  0.4950869  0.2386800

 Al 
  0.2571915  0.7561334  0.0148260

 Al 
  0.9991399  0.9974989  0.5123979

 Al 
  0.0128620  0.2501089  0.7480484

 Al 
  0.2473590  0.0110353  0.7624969

 Al 
  0.2566766  0.2587322  0.4980830

 Al 
  0.9988478  0.5124907  0.4867172

 Al 
  0.0084724  0.7838040  0.7638743

 Al 
  0.2448517  0.4758638  0.7412356

 Al 
  0.2492971  0.7539763  0.5049119

 Al 
  0.5028018  0.4937367  0.9859141

 Al 
  0.4948913  0.7565690  0.2538736

 Al 
  0.7412566  0.4828461  0.2393582

 Al 
  0.7599710  0.7375068  0.0021298

 Al 
  0.4804589  0.0185115  0.5053883

 Al 
  0.5086840  0.2508255  0.7435659

 Al 
  0.7574724  0.9890253  0.7672813

 Al 
  0.7719902  0.2320962  0.4934347

 Al 
  0.4955918  0.5048030  0.4903903

 Al 
  0.4703109  0.7439409  0.7375031

 Al 
  0.7645871  0.4944508  0.7407356

 Al 
  0.7405500  0.7467551  0.5109153

