32 
charge = 0 
 Al 
  0.0073350  0.0150314  0.0009542

 Al 
  0.9980088  0.2540778  0.2498144

 Al 
  0.2413420  0.9954136  0.2669930

 Al 
  0.2522004  0.2683295  0.0156539

 Al 
  0.4895240  0.9987030  0.0086035

 Al 
  0.4931934  0.2456438  0.2459371

 Al 
  0.7403235  0.9959655  0.2247574

 Al 
  0.7589303  0.2389659  0.9866640

 Al 
  0.0076160  0.4969927  0.9972897

 Al 
  0.0003143  0.7454990  0.2617358

 Al 
  0.2456958  0.4942738  0.2392171

 Al 
  0.2568549  0.7561730  0.0152455

 Al 
  0.0000099  0.9972897  0.5119462

 Al 
  0.0127221  0.2502401  0.7481115

 Al 
  0.2474964  0.0116789  0.7627147

 Al 
  0.2567051  0.2587892  0.4981115

 Al 
  0.9992352  0.5119388  0.4865848

 Al 
  0.0090243  0.7836221  0.7636788

 Al 
  0.2451735  0.4757586  0.7417764

 Al 
  0.2492030  0.7541223  0.5049824

 Al 
  0.5023031  0.4943109  0.9858980

 Al 
  0.4954445  0.7563524  0.2535766

 Al 
  0.7416056  0.4832669  0.2390748

 Al 
  0.7599005  0.7371034  0.0017214

 Al 
  0.4800691  0.0187070  0.5052324

 Al 
  0.5093411  0.2506052  0.7435548

 Al 
  0.7571395  0.9893731  0.7670846

 Al 
  0.7720954  0.2317447  0.4938209

 Al 
  0.4959495  0.5049156  0.4898557

 Al 
  0.4702341  0.7439830  0.7376368

 Al 
  0.7646230  0.4943827  0.7410735

 Al 
  0.7403879  0.7467440  0.5107000

