32 
charge = 0 
 Al 
  0.0064737  0.0152591  0.0004529

 Al 
  0.9977340  0.2539837  0.2501733

 Al 
  0.2410549  0.9954668  0.2667430

 Al 
  0.2525840  0.2676885  0.0149126

 Al 
  0.4887976  0.9992612  0.0089525

 Al 
  0.4937961  0.2463096  0.2466165

 Al 
  0.7401577  0.9954086  0.2251250

 Al 
  0.7585837  0.2390637  0.9864970

 Al 
  0.0075541  0.4971858  0.9974209

 Al 
  0.9997711  0.7454272  0.2616492

 Al 
  0.2457477  0.4934867  0.2397790

 Al 
  0.2565022  0.7562064  0.0156502

 Al 
  0.0008836  0.9970843  0.5114772

 Al 
  0.0125600  0.2503700  0.7481721

 Al 
  0.2476561  0.0123261  0.7629251

 Al 
  0.2567125  0.2588424  0.4981350

 Al 
  0.9996238  0.5113682  0.4864734

 Al 
  0.0095812  0.7833808  0.7634808

 Al 
  0.2455064  0.4756943  0.7423259

 Al 
  0.2490941  0.7542609  0.5050468

 Al 
  0.5018044  0.4948926  0.9858856

 Al 
  0.4960002  0.7561296  0.2532808

 Al 
  0.7419608  0.4836939  0.2387963

 Al 
  0.7598225  0.7367024  0.0013093

 Al 
  0.4797102  0.0188765  0.5050752

 Al 
  0.5099958  0.2503861  0.7435486

 Al 
  0.7567794  0.9897282  0.7668692

 Al 
  0.7721709  0.2314106  0.4942156

 Al 
  0.4963084  0.5050146  0.4893260

 Al 
  0.4701871  0.7440337  0.7377989

 Al 
  0.7646527  0.4943146  0.7414138

 Al 
  0.7402332  0.7467464  0.5104735

