32 
charge = 0 
 Al 
  0.0090812  0.0145475  0.0020346

 Al 
  0.9985743  0.2542374  0.2490978

 Al 
  0.2419101  0.9953406  0.2674286

 Al 
  0.2514442  0.2694879  0.0170524

 Al 
  0.4909769  0.9975954  0.0078523

 Al 
  0.4920152  0.2443159  0.2445820

 Al 
  0.7407121  0.9970831  0.2241226

 Al 
  0.7595998  0.2388458  0.9870266

 Al 
  0.0076989  0.4966413  0.9970138

 Al 
  0.0013700  0.7456970  0.2618435

 Al 
  0.2456277  0.4959259  0.2381677

 Al 
  0.2575145  0.7560863  0.0143941

 Al 
  0.9982711  0.9977105  0.5128310

 Al 
  0.0129796  0.2499740  0.7479815

 Al 
  0.2472427  0.0103968  0.7622704

 Al 
  0.2566271  0.2586716  0.4980484

 Al 
  0.9984605  0.5130229  0.4868707

 Al 
  0.0079278  0.7839278  0.7640661

 Al 
  0.2445448  0.4760111  0.7407047

 Al 
  0.2493763  0.7538228  0.5048352

 Al 
  0.5032993  0.4931724  0.9859339

 Al 
  0.4943431  0.7567806  0.2541706

 Al 
  0.7409163  0.4824328  0.2396466

 Al 
  0.7600354  0.7379115  0.0025382

 Al 
  0.4808784  0.0182875  0.5055443

 Al 
  0.5080256  0.2510445  0.7435808

 Al 
  0.7577768  0.9886862  0.7674608

 Al 
  0.7718554  0.2324625  0.4930573

 Al 
  0.4952354  0.5046743  0.4909299

 Al 
  0.4704136  0.7439075  0.7373954

 Al 
  0.7645475  0.4945164  0.7404002

 Al 
  0.7407183  0.7467836  0.5111183

