32 
charge = 0 
 Al 
  0.0056210  0.0154770  0.9999790

 Al 
  0.9974667  0.2538785  0.2505309

 Al 
  0.2407665  0.9955324  0.2664720

 Al 
  0.2529714  0.2670078  0.0141466

 Al 
  0.4880724  0.9998193  0.0092830

 Al 
  0.4944075  0.2469766  0.2472959

 Al 
  0.7400104  0.9948542  0.2255247

 Al 
  0.7582298  0.2391849  0.9863398

 Al 
  0.0074811  0.4973875  0.9975484

 Al 
  0.9992203  0.7453715  0.2615415

 Al 
  0.2458121  0.4927268  0.2403619

 Al 
  0.2561371  0.7562324  0.0160400

 Al 
  0.0017549  0.9968826  0.5109920

 Al 
  0.0123769  0.2504963  0.7482278

 Al 
  0.2478380  0.0129771  0.7631281

 Al 
  0.2567002  0.2588919  0.4981511

 Al 
  0.0000099  0.5107804  0.4863843

 Al 
  0.0101418  0.7830825  0.7632803

 Al 
  0.2458529  0.4756695  0.7428853

 Al 
  0.2489728  0.7543909  0.5051037

 Al 
  0.5013044  0.4954804  0.9858782

 Al 
  0.4965571  0.7559032  0.2529862

 Al 
  0.7423234  0.4841245  0.2385228

 Al 
  0.7597371  0.7363064  0.0008960

 Al 
  0.4793810  0.0190164  0.5049168

 Al 
  0.5106455  0.2501683  0.7435461

 Al 
  0.7563920  0.9900896  0.7666378

 Al 
  0.7722180  0.2310938  0.4946166

 Al 
  0.4966660  0.5050963  0.4888038

 Al 
  0.4701661  0.7440931  0.7379882

 Al 
  0.7646787  0.4942453  0.7417578

 Al 
  0.7400871  0.7467650  0.5102334

