32 
charge = 0 
 Al 
  0.9945956  0.0170858  0.9962291

 Al 
  0.9944891  0.2511014  0.2549750

 Al 
  0.2367742  0.9977699  0.2602161

 Al 
  0.2584983  0.2542671  0.0018081

 Al 
  0.4786199  0.0077744  0.0123781

 Al 
  0.5037560  0.2560542  0.2564069

 Al 
  0.7399077  0.9877098  0.2341790

 Al 
  0.7522660  0.2435300  0.9859462

 Al 
  0.0057732  0.5007326  0.9990458

 Al 
  0.9909002  0.7461883  0.2579241

 Al 
  0.2477600  0.4847483  0.2499121

 Al 
  0.2493379  0.7558314  0.0201389

 Al 
  0.0134350  0.9947465  0.5029355

 Al 
  0.0077199  0.2521930  0.7486077

 Al 
  0.2523885  0.0219878  0.7650661

 Al 
  0.2543933  0.2591877  0.4980768

 Al 
  0.0051099  0.5009108  0.4875514

 Al 
  0.0180597  0.7733429  0.7601802

 Al 
  0.2520234  0.4795357  0.7514158

 Al 
  0.2462477  0.7551012  0.5048178

 Al 
  0.4942429  0.5041359  0.9864673

 Al 
  0.5040208  0.7521484  0.2487501

 Al 
  0.7482823  0.4905153  0.2354685

 Al 
  0.7576642  0.7317682  0.9944669

 Al 
  0.4780593  0.0177169  0.5023637

 Al 
  0.5189496  0.2477130  0.7440448

 Al 
  0.7485793  0.9950188  0.7613905

 Al 
  0.7699545  0.2283922  0.5006039

 Al 
  0.5017932  0.5046334  0.4826840

 Al 
  0.4727749  0.7460707  0.7434459

 Al 
  0.7645203  0.4934669  0.7465435

 Al 
  0.7391045  0.7486238  0.5059601

