32 
charge = 0 
 Al 
  0.9964767  0.0170437  0.9965014

 Al 
  0.9949050  0.2518192  0.2543018

 Al 
  0.2374610  0.9971511  0.2617333

 Al 
  0.2575145  0.2569204  0.0041656

 Al 
  0.4801507  0.0063227  0.0119994

 Al 
  0.5019430  0.2544862  0.2548587

 Al 
  0.7396515  0.9888595  0.2321865

 Al 
  0.7535221  0.2423618  0.9856703

 Al 
  0.0061123  0.5001101  0.9987946

 Al 
  0.9924670  0.7458418  0.2588721

 Al 
  0.2472761  0.4858188  0.2480892

 Al 
  0.2508329  0.7560294  0.0195857

 Al 
  0.0114586  0.9950002  0.5045245

 Al 
  0.0088486  0.2518823  0.7485941

 Al 
  0.2513106  0.0204223  0.7648780

 Al 
  0.2551111  0.2592013  0.4981003

 Al 
  0.0042634  0.5029083  0.4869697

 Al 
  0.0166539  0.7758774  0.7607940

 Al 
  0.2507277  0.4782251  0.7497871

 Al 
  0.2468343  0.7551718  0.5050678

 Al 
  0.4955398  0.5025271  0.9862111

 Al 
  0.5027660  0.7529330  0.2495582

 Al 
  0.7470657  0.4893136  0.2358831

 Al 
  0.7581865  0.7323783  0.9957712

 Al 
  0.4778130  0.0184644  0.5029095

 Al 
  0.5176080  0.2480323  0.7438728

 Al 
  0.7502970  0.9942181  0.7626504

 Al 
  0.7707861  0.2286273  0.4995062

 Al 
  0.5008205  0.5049342  0.4835565

 Al 
  0.4718653  0.7455151  0.7420524

 Al 
  0.7646342  0.4935374  0.7457168

 Al 
  0.7390995  0.7480657  0.5068375

