32 
charge = 0 
 Al 
  0.9958307  0.0170734  0.9963888

 Al 
  0.9947564  0.2515878  0.2545406

 Al 
  0.2372234  0.9973491  0.2612395

 Al 
  0.2578536  0.2560269  0.0033625

 Al 
  0.4796136  0.0068177  0.0121368

 Al 
  0.5025543  0.2550270  0.2553945

 Al 
  0.7397245  0.9884560  0.2328437

 Al 
  0.7531038  0.2427405  0.9857408

 Al 
  0.0059935  0.5003242  0.9988800

 Al 
  0.9919348  0.7459507  0.2585639

 Al 
  0.2474358  0.4854327  0.2487117

 Al 
  0.2503391  0.7559700  0.0197849

 Al 
  0.0121430  0.9949050  0.5039862

 Al 
  0.0084785  0.2519875  0.7486003

 Al 
  0.2516658  0.0209631  0.7649535

 Al 
  0.2548822  0.2592013  0.4980904

 Al 
  0.0045579  0.5022375  0.4871467

 Al 
  0.0171365  0.7750545  0.7605886

 Al 
  0.2511608  0.4786372  0.7503391

 Al 
  0.2466363  0.7551606  0.5049960

 Al 
  0.4950993  0.5030729  0.9862866

 Al 
  0.5032016  0.7526731  0.2492859

 Al 
  0.7474717  0.4897208  0.2357321

 Al 
  0.7580182  0.7321556  0.9953369

 Al 
  0.4778699  0.0182392  0.5027301

 Al 
  0.5180771  0.2479147  0.7439273

 Al 
  0.7497253  0.9944990  0.7622383

 Al 
  0.7705250  0.2285332  0.4998824

 Al 
  0.5011472  0.5048426  0.4832422

 Al 
  0.4721499  0.7456920  0.7425053

 Al 
  0.7646008  0.4935065  0.7460027

 Al 
  0.7390896  0.7482451  0.5065430

