32 
charge = 0 
 Al 
  0.9999950  0.0166502  0.9974556

 Al 
  0.9958059  0.2528476  0.2528984

 Al 
  0.2387629  0.9962985  0.2640092

 Al 
  0.2556928  0.2613893  0.0083523

 Al 
  0.4831865  0.0037053  0.0111282

 Al 
  0.4988157  0.2515371  0.2519145

 Al 
  0.7395018  0.9911415  0.2290765

 Al 
  0.7555678  0.2406923  0.9856344

 Al 
  0.0067348  0.4989728  0.9983318

 Al 
  0.9952440  0.7454260  0.2602507

 Al 
  0.2465435  0.4881850  0.2448357

 Al 
  0.2532115  0.7562274  0.0183691

 Al 
  0.0076853  0.9956339  0.5072793

 Al 
  0.0105638  0.2513304  0.7485100

 Al 
  0.2496324  0.0174793  0.7643198

 Al 
  0.2560641  0.2591369  0.4981548

 Al 
  0.0026249  0.5062905  0.4863682

 Al 
  0.0140587  0.7795728  0.7618336

 Al 
  0.2485830  0.4765767  0.7469308

 Al 
  0.2478219  0.7550394  0.5052596

 Al 
  0.4978578  0.4996621  0.9859623

 Al 
  0.5003564  0.7542090  0.2509529

 Al 
  0.7450324  0.4871949  0.2368101

 Al 
  0.7589426  0.7337669  0.9979320

 Al 
  0.4779442  0.0191921  0.5037746

 Al 
  0.5149646  0.2487773  0.7436575

 Al 
  0.7530716  0.9926217  0.7645525

 Al 
  0.7717947  0.2293513  0.4975150

 Al 
  0.4991374  0.5052411  0.4854525

 Al 
  0.4707477  0.7447626  0.7400079

 Al 
  0.7647332  0.4937800  0.7441488

 Al 
  0.7393198  0.7473095  0.5083201

