32 
charge = 0 
 Al 
  0.9978268  0.0169348  0.9968034

 Al 
  0.9952341  0.2522573  0.2537795

 Al 
  0.2379610  0.9967823  0.2626863

 Al 
  0.2568091  0.2587162  0.0058141

 Al 
  0.4813004  0.0053017  0.0116900

 Al 
  0.5007054  0.2533513  0.2537313

 Al 
  0.7395463  0.9897220  0.2309044

 Al 
  0.7543500  0.2416465  0.9855948

 Al 
  0.0063574  0.4996659  0.9986176

 Al 
  0.9935585  0.7456463  0.2594587

 Al 
  0.2469692  0.4866764  0.2468096

 Al 
  0.2518044  0.7561284  0.0191439

 Al 
  0.0100144  0.9952230  0.5056173

 Al 
  0.0095639  0.2516658  0.7485706

 Al 
  0.2506138  0.0192886  0.7646886

 Al 
  0.2555331  0.2591877  0.4981226

 Al 
  0.0036397  0.5042609  0.4866715

 Al 
  0.0156490  0.7774479  0.7612086

 Al 
  0.2498626  0.4774788  0.7486610

 Al 
  0.2472340  0.7551544  0.5051767

 Al 
  0.4964457  0.5014046  0.9860886

 Al 
  0.5018452  0.7534478  0.2501077

 Al 
  0.7462502  0.4884820  0.2362197

 Al 
  0.7585058  0.7328808  0.9966375

 Al 
  0.4777808  0.0188357  0.5032622

 Al 
  0.5166081  0.2482996  0.7437738

 Al 
  0.7514281  0.9936142  0.7634449

 Al 
  0.7712502  0.2288661  0.4987303

 Al 
  0.5001572  0.5050901  0.4842533

 Al 
  0.4713554  0.7451871  0.7411873

 Al 
  0.7646886  0.4936191  0.7451141

 Al 
  0.7391528  0.7477340  0.5074316

