32 
charge = 0 
 Al 
  0.9952032  0.0170870  0.9962985

 Al 
  0.9946178  0.2513477  0.2547659

 Al 
  0.2369945  0.9975546  0.2607334

 Al 
  0.2581815  0.2551421  0.0025766

 Al 
  0.4791025  0.0073016  0.0122630

 Al 
  0.5031583  0.2555505  0.2559106

 Al 
  0.7398099  0.9880724  0.2335070

 Al 
  0.7526855  0.2431291  0.9858324

 Al 
  0.0058809  0.5005322  0.9989642

 Al 
  0.9914126  0.7460670  0.2582484

 Al 
  0.2475967  0.4850762  0.2493193

 Al 
  0.2498404  0.7559044  0.0199693

 Al 
  0.0128026  0.9948208  0.5034565

 Al 
  0.0081023  0.2520915  0.7486053

 Al 
  0.2520259  0.0214853  0.7650166

 Al 
  0.2546421  0.2591976  0.4980830

 Al 
  0.0048401  0.5015717  0.4873397

 Al 
  0.0176056  0.7742092  0.7603831

 Al 
  0.2515927  0.4790753  0.7508824

 Al 
  0.2464408  0.7551384  0.5049131

 Al 
  0.4946661  0.5036100  0.9863720

 Al 
  0.5036199  0.7524120  0.2490174

 Al 
  0.7478776  0.4901205  0.2355948

 Al 
  0.7578437  0.7319514  0.9949025

 Al 
  0.4779516  0.0179904  0.5025481

 Al 
  0.5185251  0.2478083  0.7439842

 Al 
  0.7491523  0.9947663  0.7618187

 Al 
  0.7702478  0.2284540  0.5002488

 Al 
  0.5014715  0.5047423  0.4829513

 Al 
  0.4724531  0.7458764  0.7429694

 Al 
  0.7645636  0.4934830  0.7462786

 Al 
  0.7390909  0.7484308  0.5062497

