32 
charge = 0 
 Al 
  0.9912962  0.0167380  0.9962069

 Al 
  0.9939050  0.2494703  0.2558970

 Al 
  0.2356591  0.9992278  0.2569143

 Al 
  0.2601134  0.2493552  0.9976598

 Al 
  0.4763638  0.0103250  0.0129004

 Al 
  0.5072162  0.2586567  0.2589513

 Al 
  0.7407010  0.9859920  0.2383483

 Al 
  0.7497277  0.2461153  0.9871108

 Al 
  0.0052733  0.5017672  0.9995149

 Al 
  0.9880674  0.7469952  0.2558512

 Al 
  0.2487686  0.4833300  0.2531063

 Al 
  0.2462564  0.7552522  0.0208715

 Al 
  0.0166576  0.9945362  0.5000384

 Al 
  0.0053364  0.2527523  0.7485966

 Al 
  0.2545518  0.0245508  0.7650351

 Al 
  0.2527548  0.2590218  0.4981003

 Al 
  0.0064514  0.4971115  0.4891565

 Al 
  0.0204643  0.7677702  0.7589686

 Al 
  0.2545357  0.4827323  0.7543983

 Al 
  0.2452069  0.7545926  0.5039949

 Al 
  0.4918927  0.5070826  0.9872902

 Al 
  0.5060616  0.7505198  0.2471845

 Al 
  0.7506745  0.4927504  0.2349587

 Al 
  0.7564428  0.7310839  0.9918247

 Al 
  0.4791830  0.0156057  0.5011744

 Al 
  0.5210262  0.2473962  0.7444446

 Al 
  0.7451772  0.9962106  0.7586741

 Al 
  0.7678840  0.2283142  0.5025073

 Al 
  0.5036954  0.5038736  0.4816185

 Al 
  0.4750792  0.7474147  0.7465064

 Al 
  0.7641639  0.4935572  0.7478801

 Al 
  0.7394114  0.7498973  0.5043129

