32 
charge = 0 
 Al 
  0.9923358  0.0169175  0.9961487

 Al 
  0.9940684  0.2500408  0.2556532

 Al 
  0.2359896  0.9987092  0.2580528

 Al 
  0.2596332  0.2509158  0.9989505

 Al 
  0.4769875  0.0095329  0.0127543

 Al 
  0.5060839  0.2578709  0.2581852

 Al 
  0.7404015  0.9864747  0.2369326

 Al 
  0.7505767  0.2452218  0.9866294

 Al 
  0.0054081  0.5014578  0.9993614

 Al 
  0.9889647  0.7467155  0.2565653

 Al 
  0.2484295  0.4837013  0.2521138

 Al 
  0.2472947  0.7554713  0.0206797

 Al 
  0.0156935  0.9945622  0.5009566

 Al 
  0.0061470  0.2525766  0.7486028

 Al 
  0.2538377  0.0237872  0.7651119

 Al 
  0.2533229  0.2590998  0.4980781

 Al 
  0.0060566  0.4983454  0.4885575

 Al 
  0.0197255  0.7696933  0.7593721

 Al 
  0.2537139  0.4815888  0.7534478

 Al 
  0.2455274  0.7548203  0.5043203

 Al 
  0.4926402  0.5061408  0.9869635

 Al 
  0.5054502  0.7510730  0.2477031

 Al 
  0.7498824  0.4920289  0.2350812

 Al 
  0.7568784  0.7312311  0.9927145

 Al 
  0.4787214  0.0163965  0.5015890

 Al 
  0.5204260  0.2474506  0.7443060

 Al 
  0.7462997  0.9958752  0.7596072

 Al 
  0.7686290  0.2282857  0.5019195

 Al 
  0.5030642  0.5041446  0.4818685

 Al 
  0.4742401  0.7469308  0.7454495

 Al 
  0.7643025  0.4934879  0.7474828

 Al 
  0.7392654  0.7494530  0.5048426

