32 
charge = 0 
 Al 
  0.9893532  0.0161873  0.9964692

 Al 
  0.9936550  0.2482439  0.2561915

 Al 
  0.2351257  0.0003700  0.2545134

 Al 
  0.2608707  0.2465286  0.9953752

 Al 
  0.4755272  0.0117172  0.0131343

 Al 
  0.5094377  0.2599834  0.2602470

 Al 
  0.7413915  0.9853114  0.2412777

 Al 
  0.7480137  0.2479976  0.9883657

 Al 
  0.0051111  0.5022647  0.9998168

 Al 
  0.9864091  0.7475694  0.2543636

 Al 
  0.2494567  0.4828746  0.2548686

 Al 
  0.2441377  0.7547399  0.0211128

 Al 
  0.0182602  0.9946216  0.4983540

 Al 
  0.0036718  0.2530692  0.7485978

 Al 
  0.2559341  0.0257797  0.7646428

 Al 
  0.2515779  0.2587842  0.4982055

 Al 
  0.0070850  0.4947441  0.4905438

 Al 
  0.0217514  0.7637233  0.7581518

 Al 
  0.2561247  0.4852408  0.7561705

 Al 
  0.2446711  0.7539478  0.5031793

 Al 
  0.4904992  0.5088548  0.9881281

 Al 
  0.5070863  0.7493676  0.2461438

 Al 
  0.7522524  0.4941340  0.2348547

 Al 
  0.7554700  0.7310381  0.9899931

 Al 
  0.4803525  0.0137666  0.5002710

 Al 
  0.5219531  0.2474580  0.7447305

 Al 
  0.7429805  0.9966932  0.7567249

 Al 
  0.7662381  0.2285258  0.5035357

 Al 
  0.5049750  0.5032981  0.4814564

 Al 
  0.4769813  0.7485038  0.7487315

 Al 
  0.7638161  0.4938221  0.7485335

 Al 
  0.7398322  0.7508378  0.5033130

