32 
charge = 0 
 Al 
  0.9903062  0.0164955  0.9963158

 Al 
  0.9937689  0.2488713  0.2560752

 Al 
  0.2353708  0.9997810  0.2557349

 Al 
  0.2605279  0.2478900  0.9964680

 Al 
  0.4758737  0.0110551  0.0130253

 Al 
  0.5083313  0.2593609  0.2596381

 Al 
  0.7410326  0.9856034  0.2397951

 Al 
  0.7488738  0.2470410  0.9876887

 Al 
  0.0051730  0.5020370  0.9996659

 Al 
  0.9872160  0.7472811  0.2551173

 Al 
  0.2491114  0.4830553  0.2540233

 Al 
  0.2452032  0.7550084  0.0210150

 Al 
  0.0175115  0.9945560  0.4991708

 Al 
  0.0045109  0.2529169  0.7485941

 Al 
  0.2552522  0.0252166  0.7648817

 Al 
  0.2521707  0.2589179  0.4981424

 Al 
  0.0067942  0.4959111  0.4898173

 Al 
  0.0211388  0.7657814  0.7585627

 Al 
  0.2553388  0.4839501  0.7553067

 Al 
  0.2449198  0.7543042  0.5036162

 Al 
  0.4911799  0.5079872  0.9876764

 Al 
  0.5066061  0.7499517  0.2466660

 Al 
  0.7514640  0.4934508  0.2348832

 Al 
  0.7559737  0.7310183  0.9909200

 Al 
  0.4797287  0.0147295  0.5007376

 Al 
  0.5215361  0.2473962  0.7445869

 Al 
  0.7440708  0.9964828  0.7577137

 Al 
  0.7670870  0.2283946  0.5030456

 Al 
  0.5043302  0.5035902  0.4814799

 Al 
  0.4759913  0.7479382  0.7476004

 Al 
  0.7640030  0.4936674  0.7482303

 Al 
  0.7395995  0.7503601  0.5038018

