32 
charge = 0 
 Al 
  0.9879746  0.0155970  0.9967638

 Al 
  0.9935164  0.2472477  0.2562447

 Al 
  0.2348460  0.0013304  0.2525915

 Al 
  0.2612408  0.2447082  0.9939248

 Al 
  0.4752933  0.0125724  0.0132766

 Al 
  0.5110886  0.2607643  0.2610193

 Al 
  0.7419744  0.9850589  0.2435845

 Al 
  0.7467031  0.2494938  0.9895785

 Al 
  0.0050913  0.5025222  0.0000421

 Al 
  0.9852817  0.7480050  0.2531892

 Al 
  0.2499814  0.4827756  0.2560034

 Al 
  0.2425041  0.7542919  0.0211747

 Al 
  0.0191847  0.9948072  0.4972254

 Al 
  0.0023811  0.2532696  0.7486238

 Al 
  0.2569180  0.0264220  0.7641033

 Al 
  0.2506782  0.2585169  0.4983491

 Al 
  0.0074217  0.4930523  0.4917578

 Al 
  0.0225533  0.7604945  0.7575132

 Al 
  0.2572694  0.4873175  0.7573845

 Al 
  0.2443778  0.7532808  0.5024095

 Al 
  0.4895352  0.5100898  0.9889473

 Al 
  0.5076865  0.7484555  0.2453455

 Al 
  0.7534454  0.4951351  0.2349055

 Al 
  0.7546371  0.7312348  0.9885538

 Al 
  0.4814341  0.0121591  0.4995087

 Al 
  0.5224024  0.2476721  0.7449470

 Al 
  0.7413767  0.9968900  0.7551854

 Al 
  0.7648644  0.2288179  0.5041731

 Al 
  0.5059700  0.5028501  0.4816507

 Al 
  0.4786186  0.7494468  0.7505062

 Al 
  0.7634857  0.4941414  0.7489010

 Al 
  0.7402653  0.7515828  0.5026187

