32 
charge = 0 
 Al 
  0.9884300  0.0158111  0.9966573

 Al 
  0.9935585  0.2475868  0.2562435

 Al 
  0.2349277  0.0009987  0.2532449

 Al 
  0.2611381  0.2452836  0.9943827

 Al 
  0.4753317  0.0123063  0.0132320

 Al 
  0.5105378  0.2605242  0.2607804

 Al 
  0.7417739  0.9851171  0.2428036

 Al 
  0.7471437  0.2489864  0.9891478

 Al 
  0.0050876  0.5024479  0.9999678

 Al 
  0.9856468  0.7478603  0.2535865

 Al 
  0.2498045  0.4827855  0.2556420

 Al 
  0.2430536  0.7544478  0.0211648

 Al 
  0.0189025  0.9947329  0.4975880

 Al 
  0.0028155  0.2532065  0.7486115

 Al 
  0.2565962  0.0262363  0.7643099

 Al 
  0.2509777  0.2586159  0.4982946

 Al 
  0.0073227  0.4936092  0.4913358

 Al 
  0.0223021  0.7615910  0.7577298

 Al 
  0.2568920  0.4866059  0.7569898

 Al 
  0.2444644  0.7535221  0.5026818

 Al 
  0.4898483  0.5096876  0.9886540

 Al 
  0.5075021  0.7487649  0.2456141

 Al 
  0.7530456  0.4948047  0.2348757

 Al 
  0.7549255  0.7311457  0.9890414

 Al 
  0.4810542  0.0127172  0.4997723

 Al 
  0.5222761  0.2475830  0.7448753

 Al 
  0.7419076  0.9968405  0.7557064

 Al 
  0.7653359  0.2287077  0.5039738

 Al 
  0.5056334  0.5029999  0.4815541

 Al 
  0.4780506  0.7491189  0.7499035

 Al 
  0.7636033  0.4940226  0.7487909

 Al 
  0.7401094  0.7513304  0.5028452

