32 
charge = 0 
 Al 
  0.9857383  0.0142505  0.9973689

 Al 
  0.9933506  0.2454371  0.2560047

 Al 
  0.2346332  0.0031620  0.2491325

 Al 
  0.2614029  0.2423568  0.9920264

 Al 
  0.4757512  0.0135785  0.0134783

 Al 
  0.5138496  0.2616541  0.2619363

 Al 
  0.7430486  0.9851728  0.2476882

 Al 
  0.7444421  0.2521645  0.9921576

 Al 
  0.0052695  0.5026966  0.0004220

 Al 
  0.9836196  0.7487179  0.2511101

 Al 
  0.2508849  0.4830751  0.2575429

 Al 
  0.2396849  0.7534181  0.0210584

 Al 
  0.0202119  0.9953455  0.4956190

 Al 
  0.0001485  0.2535122  0.7487550

 Al 
  0.2584241  0.0268873  0.7626244

 Al 
  0.2491956  0.2578437  0.4987402

 Al 
  0.0077162  0.4903928  0.4941340

 Al 
  0.0235657  0.7546780  0.7563487

 Al 
  0.2590837  0.4911712  0.7591864

 Al 
  0.2441414  0.7517697  0.5007809

 Al 
  0.4880810  0.5119672  0.9907517

 Al 
  0.5083721  0.7468170  0.2439570

 Al 
  0.7554750  0.4967625  0.2352643

 Al 
  0.7530234  0.7320516  0.9859858

 Al 
  0.4836147  0.0090181  0.4980298

 Al 
  0.5226511  0.2484035  0.7453072

 Al 
  0.7387914  0.9969011  0.7524590

 Al 
  0.7622939  0.2295802  0.5049577

 Al 
  0.5077471  0.5020964  0.4826370

 Al 
  0.4817917  0.7513019  0.7536842

 Al 
  0.7627655  0.4949297  0.7492797

 Al 
  0.7412306  0.7528848  0.5015705

