32 
charge = 0 
 Al 
  0.9861839  0.0145587  0.9972402

 Al 
  0.9933790  0.2458133  0.2560863

 Al 
  0.2346493  0.0027709  0.2498503

 Al 
  0.2614202  0.2427516  0.9923531

 Al 
  0.4755680  0.0134226  0.0134412

 Al 
  0.5132951  0.2615180  0.2617903

 Al 
  0.7428246  0.9850936  0.2468405

 Al 
  0.7449037  0.2516125  0.9915846

 Al 
  0.0052114  0.5026892  0.0003453

 Al 
  0.9839303  0.7485780  0.2515383

 Al 
  0.2507005  0.4829687  0.2572694

 Al 
  0.2402579  0.7536050  0.0211042

 Al 
  0.0200572  0.9952156  0.4959111

 Al 
  0.0006027  0.2534751  0.7487166

 Al 
  0.2581382  0.0268588  0.7629845

 Al 
  0.2494864  0.2580046  0.4986461

 Al 
  0.0076853  0.4909076  0.4936228

 Al 
  0.0233974  0.7558871  0.7565937

 Al 
  0.2587310  0.4903606  0.7588486

 Al 
  0.2441612  0.7521138  0.5011423

 Al 
  0.4883558  0.5116120  0.9903433

 Al 
  0.5082669  0.7471573  0.2442404

 Al 
  0.7550641  0.4964395  0.2351629

 Al 
  0.7533699  0.7318363  0.9865168

 Al 
  0.4831419  0.0096938  0.4983479

 Al 
  0.5226536  0.2482167  0.7452354

 Al 
  0.7392988  0.9969296  0.7530197

 Al 
  0.7628360  0.2293983  0.5048302

 Al 
  0.5073783  0.5022462  0.4823697

 Al 
  0.4811111  0.7508997  0.7530258

 Al 
  0.7629276  0.4947453  0.7492278

 Al 
  0.7410116  0.7526199  0.5017685

