32 
charge = 0 
 Al 
  0.9830590  0.0120093  0.9981461

 Al 
  0.9932330  0.2430808  0.2551520

 Al 
  0.2348547  0.0057559  0.2446352

 Al 
  0.2607037  0.2409138  0.9906539

 Al 
  0.4778996  0.0139733  0.0136664

 Al 
  0.5171452  0.2620019  0.2624227

 Al 
  0.7444273  0.9862791  0.2530110

 Al 
  0.7415908  0.2556074  0.9961747

 Al 
  0.0058450  0.5024145  0.0008811

 Al 
  0.9820368  0.7495174  0.2484456

 Al 
  0.2520148  0.4842050  0.2588028

 Al 
  0.2361925  0.7521806  0.0205435

 Al 
  0.0205955  0.9963232  0.4942268

 Al 
  0.9974061  0.2535728  0.7491498

 Al 
  0.2599277  0.0263019  0.7597347

 Al 
  0.2475756  0.2565504  0.4994975

 Al 
  0.0076011  0.4875526  0.4975348

 Al 
  0.0241770  0.7470113  0.7546891

 Al 
  0.2610638  0.4963962  0.7609203

 Al 
  0.2443679  0.7492674  0.4982154

 Al 
  0.4866343  0.5138359  0.9937355

 Al 
  0.5086617  0.7446822  0.2422232

 Al 
  0.7579662  0.4986795  0.2362383

 Al 
  0.7507141  0.7339352  0.9826494

 Al 
  0.4867717  0.0045134  0.4958653

 Al 
  0.5220422  0.2499666  0.7457403

 Al 
  0.7359079  0.9964074  0.7489877

 Al 
  0.7587669  0.2309985  0.5053784

 Al 
  0.5101171  0.5012512  0.4850106

 Al 
  0.4863237  0.7540406  0.7578115

 Al 
  0.7615526  0.4963244  0.7493280

 Al 
  0.7428234  0.7544503  0.5005297

