32 
charge = 0 
 Al 
  0.9835058  0.0124288  0.9980211

 Al 
  0.9932466  0.2434793  0.2553376

 Al 
  0.2347792  0.0052980  0.2453987

 Al 
  0.2608943  0.2410376  0.9908111

 Al 
  0.4774145  0.0139746  0.0136404

 Al 
  0.5166056  0.2619994  0.2623880

 Al 
  0.7441971  0.9860193  0.2521051

 Al 
  0.7420722  0.2550245  0.9954433

 Al 
  0.0057225  0.5025024  0.0008044

 Al 
  0.9822645  0.7493911  0.2488961

 Al 
  0.2518254  0.4839612  0.2586382

 Al 
  0.2367742  0.7523972  0.0206586

 Al 
  0.0205955  0.9961400  0.4944112

 Al 
  0.9978603  0.2535852  0.7490607

 Al 
  0.2597062  0.0264925  0.7603027

 Al 
  0.2478244  0.2568054  0.4993490

 Al 
  0.0076568  0.4879907  0.4969346

 Al 
  0.0241263  0.7483268  0.7549886

 Al 
  0.2607519  0.4954916  0.7606703

 Al 
  0.2442886  0.7497327  0.4986882

 Al 
  0.4868472  0.5135612  0.9931773

 Al 
  0.5086555  0.7450460  0.2425115

 Al 
  0.7575516  0.4983627  0.2360304

 Al 
  0.7511225  0.7335503  0.9832162

 Al 
  0.4862148  0.0053116  0.4962539

 Al 
  0.5222155  0.2496535  0.7456685

 Al 
  0.7363633  0.9965249  0.7495718

 Al 
  0.7593820  0.2307213  0.5053500

 Al 
  0.5097062  0.5013824  0.4845243

 Al 
  0.4855230  0.7535481  0.7571098

 Al 
  0.7617841  0.4960596  0.7493515

 Al 
  0.7425251  0.7541978  0.5006831

