32 
charge = 0 
 Al 
  0.9817323  0.0106628  0.9984902

 Al 
  0.9932070  0.2419026  0.2545035

 Al 
  0.2351752  0.0071630  0.2423543

 Al 
  0.2599562  0.2408346  0.9903532

 Al 
  0.4796458  0.0138112  0.0137196

 Al 
  0.5187058  0.2618756  0.2624140

 Al 
  0.7451054  0.9872333  0.2557188

 Al 
  0.7401502  0.2573462  0.9984704

 Al 
  0.0062645  0.5020432  0.0011101

 Al 
  0.9814551  0.7498775  0.2471029

 Al 
  0.2525741  0.4850564  0.2591827

 Al 
  0.2344847  0.7515272  0.0201265

 Al 
  0.0204482  0.9968937  0.4937961

 Al 
  0.9960806  0.2534726  0.7494728

 Al 
  0.2605069  0.0255111  0.7578511

 Al 
  0.2469049  0.2556953  0.4999889

 Al 
  0.0073511  0.4863509  0.4993763

 Al 
  0.0241919  0.7430461  0.7537350

 Al 
  0.2619388  0.4991399  0.7615601

 Al 
  0.2447119  0.7477786  0.4967130

 Al 
  0.4860799  0.5145426  0.9955299

 Al 
  0.5085862  0.7435969  0.2413853

 Al 
  0.7591790  0.4996151  0.2369734

 Al 
  0.7494629  0.7352458  0.9809613

 Al 
  0.4884820  0.0020420  0.4946475

 Al 
  0.5213517  0.2510173  0.7459618

 Al 
  0.7346307  0.9959915  0.7472538

 Al 
  0.7568920  0.2319167  0.5053574

 Al 
  0.5113732  0.5008910  0.4866665

 Al 
  0.4887902  0.7555789  0.7599092

 Al 
  0.7607928  0.4971870  0.7491882

 Al 
  0.7437874  0.7551594  0.5001238

