32 
charge = 0 
 Al 
  0.9781125  0.0062398  0.9990186

 Al 
  0.9932615  0.2390043  0.2519764

 Al 
  0.2368509  0.0111789  0.2363447

 Al 
  0.2564687  0.2429174  0.9907764

 Al 
  0.4868088  0.0121492  0.0135872

 Al 
  0.5222798  0.2605354  0.2615663

 Al 
  0.7468046  0.9912368  0.2628706

 Al 
  0.7362952  0.2619016  0.0053685

 Al 
  0.0077471  0.5000545  0.0017846

 Al 
  0.9807349  0.7507190  0.2435894

 Al 
  0.2539862  0.4882258  0.2594080

 Al 
  0.2302213  0.7498602  0.0183753

 Al 
  0.0189100  0.9984728  0.4936983

 Al 
  0.9927763  0.2525358  0.7509467

 Al 
  0.2613682  0.0214927  0.7513230

 Al 
  0.2458170  0.2526459  0.5017153

 Al 
  0.0060084  0.4840218  0.5045753

 Al 
  0.0229679  0.7322410  0.7505062

 Al 
  0.2639708  0.5067311  0.7622915

 Al 
  0.2464927  0.7430622  0.4918903

 Al 
  0.4853423  0.5153990  0.0013848

 Al 
  0.5076766  0.7407789  0.2394622

 Al 
  0.7622036  0.5021744  0.2400549

 Al 
  0.7459742  0.7401564  0.9766868

 Al 
  0.4932738  0.9947255  0.4909064

 Al 
  0.5180399  0.2547510  0.7466747

 Al 
  0.7320244  0.9945758  0.7427813

 Al 
  0.7516026  0.2352619  0.5045171

 Al 
  0.5149918  0.5002401  0.4927590

 Al 
  0.4958591  0.7602025  0.7654039

 Al 
  0.7580590  0.5000421  0.7482872

 Al 
  0.7470657  0.7564675  0.4994691

