32 
charge = 0 
 Al 
  0.9784751  0.0067323  0.9990062

 Al 
  0.9932454  0.2392530  0.2522821

 Al 
  0.2366219  0.0107767  0.2369140

 Al 
  0.2569192  0.2425486  0.9906527

 Al 
  0.4859240  0.0123954  0.0136280

 Al 
  0.5219952  0.2607359  0.2617061

 Al 
  0.7466487  0.9907393  0.2621962

 Al 
  0.7366653  0.2614722  0.0046569

 Al 
  0.0075850  0.5003329  0.0017091

 Al 
  0.9807373  0.7506435  0.2439199

 Al 
  0.2538600  0.4878583  0.2594414

 Al 
  0.2306049  0.7500037  0.0185981

 Al 
  0.0191439  0.9983268  0.4936253

 Al 
  0.9930808  0.2526843  0.7507512

 Al 
  0.2613385  0.0220311  0.7520605

 Al 
  0.2458616  0.2529974  0.5015185

 Al 
  0.0061878  0.4841802  0.5040604

 Al 
  0.0231956  0.7332917  0.7508811

 Al 
  0.2637877  0.5059836  0.7623026

 Al 
  0.2462551  0.7435696  0.4924187

 Al 
  0.4853510  0.5154052  0.0007388

 Al 
  0.5078127  0.7410388  0.2396144

 Al 
  0.7619313  0.5019145  0.2396614

 Al 
  0.7463108  0.7395711  0.9770643

 Al 
  0.4928023  0.9954878  0.4913061

 Al 
  0.5184768  0.2543228  0.7465893

 Al 
  0.7322051  0.9947168  0.7431984

 Al 
  0.7521311  0.2348621  0.5046520

 Al 
  0.5146218  0.5002772  0.4920437

 Al 
  0.4951525  0.7597223  0.7648928

 Al 
  0.7583832  0.4997265  0.7484097

 Al 
  0.7466883  0.7564007  0.4995013

