32 
charge = 0 
 Al 
  0.9800332  0.0087211  0.9988355

 Al 
  0.9932070  0.2404510  0.2534590

 Al 
  0.2358027  0.0090354  0.2394634

 Al 
  0.2585912  0.2413804  0.9903260

 Al 
  0.4825566  0.0132518  0.0137221

 Al 
  0.5205534  0.2614277  0.2621665

 Al 
  0.7459383  0.9888496  0.2591629

 Al 
  0.7383087  0.2595428  0.0016286

 Al 
  0.0069118  0.5013106  0.0014121

 Al 
  0.9809391  0.7502983  0.2454062

 Al 
  0.2532696  0.4864004  0.2594389

 Al 
  0.2323833  0.7506980  0.0194273

 Al 
  0.0199408  0.9976548  0.4935350

 Al 
  0.9944607  0.2531731  0.7500421

 Al 
  0.2610576  0.0239827  0.7550270

 Al 
  0.2462329  0.2543921  0.5007314

 Al 
  0.0068437  0.4850639  0.5018143

 Al 
  0.0238812  0.7379202  0.7523501

 Al 
  0.2629536  0.5027189  0.7621157

 Al 
  0.2453876  0.7456698  0.4945770

 Al 
  0.4855700  0.5151750  0.9981115

 Al 
  0.5082842  0.7422269  0.2403891

 Al 
  0.7606715  0.5008106  0.2382011

 Al 
  0.7478108  0.7372977  0.9788476

 Al 
  0.4907381  0.9986968  0.4929632

 Al 
  0.5200733  0.2526162  0.7462675

 Al 
  0.7332112  0.9953480  0.7450844

 Al 
  0.7544193  0.2333201  0.5051049

 Al 
  0.5130451  0.5005136  0.4892382

 Al 
  0.4920846  0.7576890  0.7625687

 Al 
  0.7596406  0.4984407  0.7488553

 Al 
  0.7451983  0.7559242  0.4997277

