32 
charge = 0 
 Al 
  0.9796285  0.0082236  0.9988949

 Al 
  0.9932132  0.2401243  0.2531731

 Al 
  0.2359920  0.0094884  0.2387877

 Al 
  0.2581964  0.2416205  0.9903792

 Al 
  0.4833647  0.0130612  0.0137085

 Al 
  0.5209569  0.2612742  0.2620687

 Al 
  0.7461277  0.9893025  0.2599673

 Al 
  0.7378756  0.2600552  0.0024071

 Al 
  0.0070813  0.5010866  0.0014863

 Al 
  0.9808599  0.7503911  0.2450114

 Al 
  0.2534293  0.4867593  0.2594612

 Al 
  0.2319044  0.7505086  0.0192305

 Al 
  0.0197651  0.9978343  0.4935263

 Al 
  0.9940906  0.2530679  0.7502079

 Al 
  0.2611529  0.0235298  0.7542894

 Al 
  0.2461103  0.2540481  0.5009257

 Al 
  0.0066915  0.4848040  0.5024009

 Al 
  0.0237439  0.7367061  0.7519888

 Al 
  0.2631788  0.5035728  0.7621974

 Al 
  0.2455893  0.7451376  0.4940349

 Al 
  0.4854883  0.5152703  0.9987711

 Al 
  0.5081803  0.7419088  0.2401713

 Al 
  0.7610106  0.5010952  0.2385464

 Al 
  0.7474160  0.7378508  0.9783649

 Al 
  0.4912777  0.9978739  0.4925424

 Al 
  0.5196995  0.2530370  0.7463455

 Al 
  0.7329179  0.9951846  0.7445820

 Al 
  0.7538241  0.2336951  0.5050072

 Al 
  0.5134523  0.5004418  0.4899250

 Al 
  0.4928815  0.7582100  0.7631875

 Al 
  0.7593337  0.4987637  0.7487513

 Al 
  0.7455671  0.7560727  0.4996547

