32 
charge = 0 
 Al 
  0.9767747  0.0043203  0.9989444

 Al 
  0.9933481  0.2382271  0.2507339

 Al 
  0.2378471  0.0126244  0.2343572

 Al 
  0.2545926  0.2446141  0.9913977

 Al 
  0.4904534  0.0110861  0.0133582

 Al 
  0.5230867  0.2596740  0.2609462

 Al 
  0.7473516  0.9932837  0.2651985

 Al 
  0.7350020  0.2634028  0.0079773

 Al 
  0.0083511  0.4988317  0.0020878

 Al 
  0.9809044  0.7509789  0.2424459

 Al 
  0.2544020  0.4896614  0.2591728

 Al 
  0.2289342  0.7494183  0.0174298

 Al 
  0.0178593  0.9989481  0.4941637

 Al 
  0.9917170  0.2518353  0.7517945

 Al 
  0.2613435  0.0191859  0.7484481

 Al 
  0.2458307  0.2512685  0.5024875

 Al 
  0.0052448  0.4836122  0.5064081

 Al 
  0.0218516  0.7285073  0.7489852

 Al 
  0.2646268  0.5094104  0.7620279

 Al 
  0.2474952  0.7411440  0.4898458

 Al 
  0.4854846  0.5151267  0.0038773

 Al 
  0.5070925  0.7399064  0.2390352

 Al 
  0.7631107  0.5031446  0.2417294

 Al 
  0.7448159  0.7425325  0.9754876

 Al 
  0.4949470  0.9918630  0.4893904

 Al 
  0.5161811  0.2564378  0.7470323

 Al 
  0.7315925  0.9941154  0.7413296

 Al 
  0.7496857  0.2369016  0.5039231

 Al 
  0.5163544  0.5001745  0.4956116

 Al 
  0.4983974  0.7619771  0.7671477

 Al 
  0.7567385  0.5012549  0.7477910

 Al 
  0.7485818  0.7565319  0.4994332

