32 
charge = 0 
 Al 
  0.9777622  0.0057522  0.9990174

 Al 
  0.9932788  0.2387765  0.2516682

 Al 
  0.2370885  0.0115650  0.2358052

 Al 
  0.2560108  0.2433097  0.9909151

 Al 
  0.4877073  0.0118942  0.0135402

 Al 
  0.5225311  0.2603287  0.2614202

 Al 
  0.7469531  0.9917417  0.2635080

 Al 
  0.7359438  0.2623100  0.0060579

 Al 
  0.0079068  0.4997661  0.0018588

 Al 
  0.9807510  0.7507896  0.2432776

 Al 
  0.2541038  0.4885909  0.2593646

 Al 
  0.2298624  0.7497290  0.0181476

 Al 
  0.0186637  0.9986077  0.4937887

 Al 
  0.9924892  0.2523749  0.7511497

 Al 
  0.2613831  0.0209383  0.7505903

 Al 
  0.2457923  0.2522969  0.5019120

 Al 
  0.0058227  0.4838857  0.5050678

 Al 
  0.0227204  0.7312361  0.7501287

 Al 
  0.2641466  0.5074477  0.7622581

 Al 
  0.2467365  0.7425660  0.4913668

 Al 
  0.4853522  0.5153681  0.0020222

 Al 
  0.5075355  0.7405351  0.2393285

 Al 
  0.7624573  0.5024269  0.2404596

 Al 
  0.7456562  0.7407480  0.9763390

 Al 
  0.4937243  0.9939805  0.4905153

 Al 
  0.5175907  0.2551780  0.7467601

 Al 
  0.7318734  0.9944433  0.7423865

 Al 
  0.7510940  0.2356653  0.5043748

 Al 
  0.5153495  0.5002116  0.4934743

 Al 
  0.4965385  0.7606690  0.7658866

 Al 
  0.7577311  0.5003527  0.7481647

 Al 
  0.7474444  0.7565145  0.4994468

