32 
charge = 0 
 Al 
  0.9740347  0.9998168  0.9979234

 Al 
  0.9937837  0.2378051  0.2475199

 Al 
  0.2408990  0.0151267  0.2311977

 Al 
  0.2495508  0.2499319  0.9934743

 Al 
  0.5001299  0.0081815  0.0123137

 Al 
  0.5226969  0.2573808  0.2592000

 Al 
  0.7483367  0.9986016  0.2685622

 Al 
  0.7330751  0.2658693  0.0127692

 Al 
  0.0093510  0.4950398  0.0029838

 Al 
  0.9825231  0.7514244  0.2407331

 Al 
  0.2548215  0.4928444  0.2580615

 Al 
  0.2273105  0.7493107  0.0145909

 Al 
  0.0145104  0.9993255  0.4963393

 Al 
  0.9898507  0.2494233  0.7543661

 Al 
  0.2604116  0.0123682  0.7420004

 Al 
  0.2470645  0.2481783  0.5041879

 Al 
  0.0031434  0.4837892  0.5094438

 Al 
  0.0175821  0.7222625  0.7449606

 Al 
  0.2660388  0.5141515  0.7599525

 Al 
  0.2502228  0.7371442  0.4852235

 Al 
  0.4870316  0.5127865  0.0094711

 Al 
  0.5055480  0.7388978  0.2392146

 Al 
  0.7641800  0.5052040  0.2466066

 Al 
  0.7433531  0.7485657  0.9748416

 Al 
  0.4977650  0.9857903  0.4861690

 Al 
  0.5108188  0.2603299  0.7481956

 Al 
  0.7324576  0.9940176  0.7388879

 Al 
  0.7461524  0.2413853  0.5023402

 Al 
  0.5189793  0.5005334  0.5025296

 Al 
  0.5026051  0.7653000  0.7693382

 Al 
  0.7532498  0.5039033  0.7467068

 Al 
  0.7525222  0.7553079  0.4998985

