32 
charge = 0 
 Al 
  0.9726684  0.9971487  0.9967217

 Al 
  0.9942651  0.2385798  0.2454223

 Al 
  0.2432738  0.0159373  0.2303005

 Al 
  0.2462230  0.2537622  0.9949359

 Al 
  0.5066135  0.0063635  0.0113447

 Al 
  0.5206116  0.2560158  0.2581271

 Al 
  0.7488515  0.0019863  0.2690770

 Al 
  0.7328412  0.2667343  0.0145822

 Al 
  0.0094884  0.4922306  0.0037065

 Al 
  0.9844005  0.7516237  0.2403928

 Al 
  0.2546260  0.4944644  0.2571147

 Al 
  0.2273093  0.7499307  0.0123014

 Al 
  0.0118670  0.9989976  0.4982662

 Al 
  0.9889807  0.2474816  0.7562980

 Al 
  0.2592891  0.0072187  0.7385315

 Al 
  0.2485929  0.2465930  0.5050158

 Al 
  0.0017598  0.4844141  0.5102916

 Al 
  0.0138075  0.7203356  0.7422467

 Al 
  0.2669633  0.5159794  0.7577100

 Al 
  0.2519999  0.7351691  0.4826160

 Al 
  0.4888570  0.5101913  0.0125637

 Al 
  0.5046532  0.7390909  0.2401750

 Al 
  0.7640302  0.5063153  0.2501943

 Al 
  0.7434929  0.7523180  0.9762673

 Al 
  0.4987154  0.9825108  0.4845230

 Al 
  0.5069118  0.2624684  0.7492327

 Al 
  0.7343436  0.9949458  0.7378397

 Al 
  0.7446921  0.2446030  0.5014888

 Al 
  0.5200460  0.5011472  0.5066630

 Al 
  0.5037535  0.7665215  0.7691612

 Al 
  0.7508613  0.5052844  0.7463616

 Al 
  0.7552089  0.7536397  0.5005247

