32 
charge = 0 
 Al 
  0.9722588  0.9962502  0.9962180

 Al 
  0.9944706  0.2390117  0.2446896

 Al 
  0.2441872  0.0160908  0.2301470

 Al 
  0.2450597  0.2551421  0.9954470

 Al 
  0.5089278  0.0057522  0.0109636

 Al 
  0.5195572  0.2555678  0.2577768

 Al 
  0.7490397  0.0031545  0.2690077

 Al 
  0.7329390  0.2669509  0.0150191

 Al 
  0.0094278  0.4912158  0.0039837

 Al 
  0.9852012  0.7516868  0.2403916

 Al 
  0.2544750  0.4949532  0.2567559

 Al 
  0.2274751  0.7502525  0.0113918

 Al 
  0.0108522  0.9987983  0.4990050

 Al 
  0.9887011  0.2467489  0.7570133

 Al 
  0.2588127  0.0052621  0.7374276

 Al 
  0.2492327  0.2461153  0.5052547

 Al 
  0.0012821  0.4846666  0.5104104

 Al 
  0.0123137  0.7199842  0.7412876

 Al 
  0.2673024  0.5164509  0.7567794

 Al 
  0.2526150  0.7345701  0.4817608

 Al 
  0.4896404  0.5091159  0.0135649

 Al 
  0.5043735  0.7392963  0.2406354

 Al 
  0.7638409  0.5066791  0.2515284

 Al 
  0.7437132  0.7535815  0.9770915

 Al 
  0.4989307  0.9814390  0.4840156

 Al 
  0.5054577  0.2631429  0.7496646

 Al 
  0.7352186  0.9954606  0.7375105

 Al 
  0.7442985  0.2458034  0.5012388

 Al 
  0.5202997  0.5014356  0.5080528

 Al 
  0.5039181  0.7667813  0.7688394

 Al 
  0.7499913  0.5057126  0.7463405

 Al 
  0.7561853  0.7529231  0.5007834

