32 
charge = 0 
 Al 
  0.9735595  0.9989320  0.9975744

 Al 
  0.9939223  0.2379771  0.2468393

 Al 
  0.2416341  0.0154534  0.2308252

 Al 
  0.2484716  0.2511534  0.9939471

 Al 
  0.5022165  0.0075801  0.0120204

 Al 
  0.5221734  0.2569242  0.2588411

 Al 
  0.7485050  0.9997092  0.2688530

 Al 
  0.7329142  0.2661972  0.0134560

 Al 
  0.0094426  0.4941476  0.0032053

 Al 
  0.9830652  0.7514937  0.2405648

 Al 
  0.2547968  0.4934075  0.2577682

 Al 
  0.2272301  0.7494592  0.0138941

 Al 
  0.0136936  0.9992624  0.4969308

 Al 
  0.9895525  0.2488206  0.7549738

 Al 
  0.2600861  0.0107631  0.7408185

 Al 
  0.2475075  0.2476264  0.5044812

 Al 
  0.0026917  0.4839674  0.5098064

 Al 
  0.0164385  0.7214767  0.7440857

 Al 
  0.2663321  0.5148322  0.7592941

 Al 
  0.2508019  0.7364561  0.4843485

 Al 
  0.4875563  0.5120266  0.0105156

 Al 
  0.5052436  0.7388929  0.2394634

 Al 
  0.7641973  0.5055789  0.2477353

 Al 
  0.7433134  0.7498032  0.9751510

 Al 
  0.4981350  0.9846839  0.4856010

 Al 
  0.5095886  0.2610589  0.7485025

 Al 
  0.7329662  0.9942305  0.7385216

 Al 
  0.7456190  0.2423977  0.5020420

 Al 
  0.5193790  0.5006992  0.5038996

 Al 
  0.5030989  0.7657752  0.7694075

 Al 
  0.7524875  0.5043785  0.7465534

 Al 
  0.7533798  0.7548327  0.5000792

