32 
charge = 0 
 Al 
  0.9733293  0.9984889  0.9973801

 Al 
  0.9940003  0.2380946  0.2464915

 Al 
  0.2420214  0.0155958  0.2306668

 Al 
  0.2479209  0.2517858  0.9941896

 Al 
  0.5032870  0.0072781  0.0118633

 Al 
  0.5218479  0.2566965  0.2586617

 Al 
  0.7485892  0.0002710  0.2689545

 Al 
  0.7328647  0.2663457  0.0137691

 Al 
  0.0094735  0.4936847  0.0033241

 Al 
  0.9833659  0.7515272  0.2405005

 Al 
  0.2547696  0.4936810  0.2576122

 Al 
  0.2272189  0.7495545  0.0135216

 Al 
  0.0132617  0.9992129  0.4972464

 Al 
  0.9894065  0.2485025  0.7552906

 Al 
  0.2599055  0.0099215  0.7402369

 Al 
  0.2477538  0.2473590  0.5046223

 Al 
  0.0024627  0.4840689  0.5099574

 Al 
  0.0158247  0.7211376  0.7436377

 Al 
  0.2664843  0.5151453  0.7589327

 Al 
  0.2510965  0.7361232  0.4839129

 Al 
  0.4878496  0.5116071  0.0110329

 Al 
  0.5050938  0.7389164  0.2396144

 Al 
  0.7641812  0.5057646  0.2483243

 Al 
  0.7433258  0.7504270  0.9753663

 Al 
  0.4982996  0.9841357  0.4853250

 Al 
  0.5089476  0.2614178  0.7486696

 Al 
  0.7332644  0.9943716  0.7383459

 Al 
  0.7453690  0.2429261  0.5018984

 Al 
  0.5195634  0.5007958  0.5045876

 Al 
  0.5033031  0.7659881  0.7693951

 Al 
  0.7520952  0.5046099  0.7464903

 Al 
  0.7538216  0.7545641  0.5001807

