32 
charge = 0 
 Al 
  0.9718826  0.9953517  0.9956661

 Al 
  0.9946970  0.2395302  0.2439496

 Al 
  0.2451624  0.0161836  0.2300653

 Al 
  0.2438815  0.2565603  0.9959631

 Al 
  0.5113051  0.0051458  0.0105539

 Al 
  0.5183159  0.2551260  0.2574328

 Al 
  0.7492438  0.0043315  0.2688196

 Al 
  0.7331320  0.2671353  0.0153681

 Al 
  0.0093015  0.4901812  0.0042783

 Al 
  0.9860898  0.7517512  0.2404485

 Al 
  0.2542770  0.4954111  0.2563796

 Al 
  0.2277301  0.7506312  0.0103992

 Al 
  0.0097681  0.9985570  0.4997822

 Al 
  0.9884238  0.2459779  0.7577583

 Al 
  0.2582867  0.0031842  0.7363596

 Al 
  0.2499344  0.2456698  0.5054700

 Al 
  0.0008019  0.4849265  0.5104426

 Al 
  0.0107074  0.7197849  0.7403099

 Al 
  0.2676526  0.5168568  0.7557609

 Al 
  0.2532350  0.7340082  0.4809180

 Al 
  0.4905141  0.5079402  0.0145438

 Al 
  0.5041099  0.7395735  0.2411601

 Al 
  0.7635785  0.5070393  0.2529281

 Al 
  0.7440164  0.7548339  0.9781001

 Al 
  0.4990978  0.9803822  0.4835342

 Al 
  0.5039280  0.2637889  0.7501460

 Al 
  0.7362173  0.9960856  0.7371826

 Al 
  0.7439545  0.2470707  0.5010099

 Al 
  0.5204928  0.5017710  0.5094389

 Al 
  0.5039788  0.7669583  0.7683852

 Al 
  0.7490867  0.5061210  0.7463851

 Al 
  0.7571989  0.7521298  0.5010618

