32 
charge = 0 
 Al 
  0.9712650  0.9936018  0.9944495

 Al 
  0.9952020  0.2407962  0.2424954

 Al 
  0.2472736  0.0161688  0.2301037

 Al 
  0.2415573  0.2594364  0.9969803

 Al 
  0.5161502  0.0039775  0.0096678

 Al 
  0.5153000  0.2542832  0.2567880

 Al 
  0.7497141  0.0066618  0.2680994

 Al 
  0.7338164  0.2674150  0.0157975

 Al 
  0.0088139  0.4881380  0.0048908

 Al 
  0.9881033  0.7518811  0.2407344

 Al 
  0.2537424  0.4962118  0.2555864

 Al 
  0.2285159  0.7515383  0.0081840

 Al 
  0.0074316  0.9979753  0.5014022

 Al 
  0.9878719  0.2443691  0.7592929

 Al 
  0.2570962  0.9987204  0.7343671

 Al 
  0.2514826  0.2448951  0.5058190

 Al 
  0.9998552  0.4854228  0.5102396

 Al 
  0.0072162  0.7198530  0.7383719

 Al 
  0.2683654  0.5174645  0.7534924

 Al 
  0.2544639  0.7330169  0.4793117

 Al 
  0.4925016  0.5053500  0.0163890

 Al 
  0.5036533  0.7403322  0.2423593

 Al 
  0.7628409  0.5077286  0.2558648

 Al 
  0.7448480  0.7572125  0.9806458

 Al 
  0.4992946  0.9783513  0.4826791

 Al 
  0.5006906  0.2649498  0.7512611

 Al 
  0.7385402  0.9976474  0.7365267

 Al 
  0.7434261  0.2497649  0.5006225

 Al 
  0.5206524  0.5025791  0.5121244

 Al 
  0.5038067  0.7670400  0.7670932

 Al 
  0.7472105  0.5068549  0.7467118

 Al 
  0.7592953  0.7503638  0.5016497

