32 
charge = 0 
 Al 
  0.9711475  0.9931823  0.9941290

 Al 
  0.9953356  0.2411527  0.2421501

 Al 
  0.2478256  0.0161217  0.2301520

 Al 
  0.2410017  0.2601431  0.9972241

 Al 
  0.5173531  0.0037028  0.0094364

 Al 
  0.5144485  0.2540852  0.2566383

 Al 
  0.7498465  0.0072249  0.2678543

 Al 
  0.7340478  0.2674670  0.0158470

 Al 
  0.0086394  0.4876541  0.0050443

 Al 
  0.9886466  0.7519157  0.2408396

 Al 
  0.2535827  0.4963838  0.2553822

 Al 
  0.2287684  0.7517895  0.0075887

 Al 
  0.0068214  0.9978145  0.5018081

 Al 
  0.9877370  0.2439632  0.7596753

 Al 
  0.2567757  0.9975608  0.7339080

 Al 
  0.2518898  0.2447305  0.5058883

 Al 
  0.9996287  0.4855341  0.5101332

 Al 
  0.0063054  0.7199668  0.7379053

 Al 
  0.2685387  0.5175734  0.7528897

 Al 
  0.2547609  0.7328041  0.4789354

 Al 
  0.4930399  0.5046681  0.0168172

 Al 
  0.5035580  0.7405599  0.2426798

 Al 
  0.7626157  0.5078907  0.2566111

 Al 
  0.7450955  0.7577608  0.9813821

 Al 
  0.4993181  0.9778711  0.4824947

 Al 
  0.4998602  0.2652022  0.7515692

 Al 
  0.7391750  0.9980942  0.7363633

 Al 
  0.7433295  0.2504604  0.5005421

 Al 
  0.5206388  0.5028080  0.5127617

 Al 
  0.5037102  0.7670016  0.7666997

 Al 
  0.7467365  0.5070170  0.7468516

 Al 
  0.7598225  0.7498960  0.5017969

