32 
charge = 0 
 Al 
  0.9714445  0.9894226  0.9905166

 Al 
  0.9968987  0.2457601  0.2394782

 Al 
  0.2542684  0.0143607  0.2316172

 Al 
  0.2363237  0.2668432  0.9993924

 Al 
  0.5293537  0.0014455  0.0066383

 Al 
  0.5029281  0.2523155  0.2554403

 Al 
  0.7518613  0.0124969  0.2636924

 Al 
  0.7381528  0.2675684  0.0148941

 Al 
  0.0048042  0.4842434  0.0064415

 Al 
  0.9953963  0.7523105  0.2428159

 Al 
  0.2512537  0.4974593  0.2530382

 Al 
  0.2331382  0.7549465  0.0000495

 Al 
  0.9997859  0.9959222  0.5057312

 Al 
  0.9864351  0.2399003  0.7633669

 Al 
  0.2527239  0.9841778  0.7301681

 Al 
  0.2565566  0.2436946  0.5061012

 Al 
  0.9976449  0.4860131  0.5075207

 Al 
  0.9959433  0.7238355  0.7340194

 Al 
  0.2697713  0.5176872  0.7457453

 Al 
  0.2575355  0.7316692  0.4759207

 Al 
  0.4997141  0.4970187  0.0203678

 Al 
  0.5030902  0.7438369  0.2462514

 Al 
  0.7591617  0.5092619  0.2645612

 Al 
  0.7485793  0.7615613  0.9917714

 Al 
  0.4990347  0.9737624  0.4816185

 Al 
  0.4906156  0.2664311  0.7557807

 Al 
  0.7469197  0.0041545  0.7345886

 Al 
  0.7432540  0.2582991  0.5000804

 Al 
  0.5186748  0.5060319  0.5181427

 Al 
  0.5017239  0.7649869  0.7607618

 Al 
  0.7418655  0.5079687  0.7504195

 Al 
  0.7651453  0.7446104  0.5030679

