32 
charge = 0 
 Al 
  0.9720855  0.9889102  0.9897938

 Al 
  0.9972390  0.2468244  0.2393632

 Al 
  0.2556631  0.0136231  0.2321494

 Al 
  0.2358683  0.2678135  0.9996584

 Al 
  0.5313747  0.0012326  0.0059453

 Al 
  0.5000272  0.2520407  0.2553215

 Al 
  0.7524751  0.0132951  0.2625043

 Al 
  0.7394213  0.2674360  0.0143149

 Al 
  0.0033761  0.4843263  0.0065937

 Al 
  0.9969853  0.7523947  0.2434248

 Al 
  0.2506448  0.4974989  0.2525024

 Al 
  0.2345119  0.7556420  0.9982006

 Al 
  0.9982835  0.9955473  0.5062794

 Al 
  0.9862655  0.2392617  0.7639015

 Al 
  0.2517214  0.9812918  0.7297250

 Al 
  0.2575194  0.2436550  0.5060121

 Al 
  0.9974160  0.4858670  0.5066185

 Al 
  0.9938122  0.7253440  0.7337025

 Al 
  0.2696933  0.5174447  0.7441934

 Al 
  0.2579390  0.7318227  0.4756596

 Al 
  0.5012462  0.4955398  0.0207737

 Al 
  0.5031422  0.7446686  0.2469024

 Al 
  0.7582162  0.5094240  0.2660425

 Al 
  0.7494678  0.7615576  0.9945040

 Al 
  0.4988887  0.9733120  0.4818450

 Al 
  0.4887184  0.2661465  0.7568895

 Al 
  0.7485743  0.0056235  0.7342409

 Al 
  0.7434904  0.2599215  0.5001027

 Al 
  0.5176922  0.5068895  0.5187095

 Al 
  0.5012079  0.7641676  0.7591493

 Al 
  0.7410128  0.5078981  0.7518106

 Al 
  0.7660190  0.7435820  0.5031657

