32 
charge = 0 
 Al 
  0.9710410  0.9901057  0.9913234

 Al 
  0.9965361  0.2446339  0.2398272

 Al 
  0.2527672  0.0149881  0.2311371

 Al 
  0.2370699  0.2655772  0.9990124

 Al 
  0.5269219  0.0017994  0.0073276

 Al 
  0.5058710  0.2526496  0.2556284

 Al 
  0.7512908  0.0114908  0.2648557

 Al 
  0.7369586  0.2676340  0.0153606

 Al 
  0.0060504  0.4845664  0.0062027

 Al 
  0.9937503  0.7522189  0.2422392

 Al 
  0.2518662  0.4973479  0.2535926

 Al 
  0.2318623  0.7541929  0.0019281

 Al 
  0.0014108  0.9963480  0.5049899

 Al 
  0.9866789  0.2407059  0.7626615

 Al 
  0.2537325  0.9872791  0.7307893

 Al 
  0.2554960  0.2438048  0.5061433

 Al 
  0.9979852  0.4860576  0.5083511

 Al 
  0.9982897  0.7225100  0.7346159

 Al 
  0.2696698  0.5178382  0.7474172

 Al 
  0.2570108  0.7316903  0.4763799

 Al 
  0.4981016  0.4987092  0.0197787

 Al 
  0.5030964  0.7429880  0.2454817

 Al 
  0.7600960  0.5090305  0.2628546

 Al 
  0.7476808  0.7611727  0.9890513

 Al 
  0.4991696  0.9744518  0.4815776

 Al 
  0.4926959  0.2664744  0.7546817

 Al 
  0.7451054  0.0026286  0.7349809

 Al 
  0.7431031  0.2565207  0.5001114

 Al 
  0.5194706  0.5051792  0.5172603

 Al 
  0.5022746  0.7657084  0.7623558

 Al 
  0.7428766  0.5079154  0.7492154

 Al 
  0.7640686  0.7457836  0.5028711

