32 
charge = 0 
 Al 
  0.9723541  0.9887753  0.9895711

 Al 
  0.9973479  0.2471635  0.2393780

 Al 
  0.2561037  0.0133508  0.2323375

 Al 
  0.2357792  0.2680734  0.9997215

 Al 
  0.5319613  0.0011905  0.0057101

 Al 
  0.4990706  0.2519603  0.2552968

 Al 
  0.7526905  0.0135191  0.2621034

 Al 
  0.7398594  0.2673754  0.0140995

 Al 
  0.0028588  0.4844463  0.0066247

 Al 
  0.9975051  0.7524207  0.2436340

 Al 
  0.2504430  0.4974989  0.2523254

 Al 
  0.2349933  0.7558586  0.9975880

 Al 
  0.9978095  0.9954346  0.5064192

 Al 
  0.9862259  0.2390872  0.7640426

 Al 
  0.2513861  0.9803735  0.7296124

 Al 
  0.2578189  0.2436538  0.5059737

 Al 
  0.9973652  0.4857990  0.5063041

 Al 
  0.9931476  0.7258861  0.7336580

 Al 
  0.2696228  0.5173444  0.7437008

 Al 
  0.2580454  0.7319118  0.4756138

 Al 
  0.5017388  0.4950955  0.0208715

 Al 
  0.5031719  0.7449408  0.2470917

 Al 
  0.7578981  0.5094636  0.2664856

 Al 
  0.7497624  0.7614697  0.9954198

 Al 
  0.4988416  0.9732142  0.4819638

 Al 
  0.4881244  0.2659967  0.7572620

 Al 
  0.7490867  0.0060987  0.7341344

 Al 
  0.7435870  0.2604277  0.5001225

 Al 
  0.5173234  0.5071754  0.5188308

 Al 
  0.5010482  0.7638756  0.7586097

 Al 
  0.7407616  0.5078474  0.7523167

 Al 
  0.7662640  0.7432726  0.5031756

