32 
charge = 0 
 Al 
  0.9810752  0.9887530  0.9871145

 Al 
  0.9989877  0.2518056  0.2432763

 Al 
  0.2617828  0.0065640  0.2361789

 Al 
  0.2378719  0.2684620  0.9992067

 Al 
  0.5362965  0.0021162  0.0010222

 Al 
  0.4840478  0.2512116  0.2556445

 Al 
  0.7571086  0.0146664  0.2553153

 Al 
  0.7484741  0.2646701  0.0093386

 Al 
  0.9913890  0.4930474  0.0056755

 Al 
  0.0058858  0.7527845  0.2476016

 Al 
  0.2471586  0.4972328  0.2491486

 Al 
  0.2452094  0.7581716  0.9876182

 Al 
  0.9916403  0.9945126  0.5053314

 Al 
  0.9873731  0.2391800  0.7636664

 Al 
  0.2450720  0.9678667  0.7295208

 Al 
  0.2612433  0.2441327  0.5049923

 Al 
  0.9984431  0.4838350  0.5006250

 Al 
  0.9847965  0.7374016  0.7373509

 Al 
  0.2643471  0.5143149  0.7372086

 Al 
  0.2576172  0.7361145  0.4774850

 Al 
  0.5087434  0.4911514  0.0203629

 Al 
  0.5042820  0.7491622  0.2481511

 Al 
  0.7523860  0.5091778  0.2702762

 Al 
  0.7547609  0.7541619  0.0114029

 Al 
  0.4988058  0.9755124  0.4871999

 Al 
  0.4805455  0.2595490  0.7634560

 Al 
  0.7543971  0.0127110  0.7331902

 Al 
  0.7457985  0.2665586  0.5015309

 Al 
  0.5085813  0.5115539  0.5164645

 Al 
  0.5002302  0.7579365  0.7495297

 Al 
  0.7386268  0.5051569  0.7633719

 Al 
  0.7670227  0.7405277  0.5017425

