32 
charge = 0 
 Al 
  0.9773687  0.9883521  0.9876578

 Al 
  0.9984691  0.2504913  0.2413061

 Al 
  0.2602903  0.0092731  0.2348015

 Al 
  0.2365885  0.2690547  0.9996671

 Al 
  0.5359190  0.0015556  0.0027449

 Al 
  0.4886862  0.2513452  0.2554081

 Al 
  0.7555146  0.0147666  0.2575244

 Al 
  0.7454037  0.2659485  0.0110650

 Al 
  0.9956240  0.4889684  0.0062757

 Al 
  0.0031781  0.7526694  0.2462155

 Al 
  0.2482043  0.4973009  0.2502574

 Al 
  0.2413940  0.7577323  0.9907764

 Al 
  0.9932912  0.9945980  0.5064007

 Al 
  0.9865700  0.2384956  0.7643446

 Al 
  0.2473219  0.9713640  0.7292659

 Al 
  0.2604698  0.2439137  0.5053438

 Al 
  0.9976820  0.4845503  0.5024838

 Al 
  0.9870279  0.7332100  0.7352817

 Al 
  0.2669905  0.5155958  0.7389783

 Al 
  0.2582347  0.7342099  0.4763935

 Al 
  0.5067224  0.4917318  0.0209037

 Al 
  0.5038315  0.7478405  0.2482352

 Al 
  0.7542263  0.5094723  0.2697899

 Al 
  0.7531013  0.7576308  0.0060344

 Al 
  0.4985879  0.9739481  0.4848238

 Al 
  0.4825615  0.2624412  0.7614846

 Al 
  0.7533835  0.0108596  0.7333078

 Al 
  0.7450312  0.2650327  0.5008341

 Al 
  0.5118967  0.5102854  0.5180783

 Al 
  0.5000322  0.7600465  0.7524702

 Al 
  0.7389411  0.5063895  0.7593300

 Al 
  0.7674558  0.7409262  0.5025147

