32 
charge = 0 
 Al 
  0.9767388  0.9883137  0.9877927

 Al 
  0.9983689  0.2502153  0.2409930

 Al 
  0.2599574  0.0097446  0.2345441

 Al 
  0.2363918  0.2690993  0.9997277

 Al 
  0.5357371  0.0014677  0.0030580

 Al 
  0.4896280  0.2513836  0.2553723

 Al 
  0.7552188  0.0147369  0.2579588

 Al 
  0.7448332  0.2661502  0.0113893

 Al 
  0.9964061  0.4883038  0.0063623

 Al 
  0.0026496  0.7526484  0.2459544

 Al 
  0.2484122  0.4973219  0.2504641

 Al 
  0.2407059  0.7576073  0.9914101

 Al 
  0.9936550  0.9946401  0.5065294

 Al 
  0.9864673  0.2384387  0.7644151

 Al 
  0.2477377  0.9721140  0.7292411

 Al 
  0.2602780  0.2438753  0.5054119

 Al 
  0.9975806  0.4846914  0.5028538

 Al 
  0.9875118  0.7324328  0.7349686

 Al 
  0.2673977  0.5158111  0.7393619

 Al 
  0.2583003  0.7338956  0.4762277

 Al 
  0.5062967  0.4919212  0.0209730

 Al 
  0.5037486  0.7475781  0.2482055

 Al 
  0.7545815  0.5095057  0.2696117

 Al 
  0.7527808  0.7582001  0.0050035

 Al 
  0.4985780  0.9737340  0.4844327

 Al 
  0.4830046  0.2629214  0.7610886

 Al 
  0.7531026  0.0104611  0.7333535

 Al 
  0.7448777  0.2646824  0.5007252

 Al 
  0.5124981  0.5100119  0.5183048

 Al 
  0.5000507  0.7604426  0.7530494

 Al 
  0.7390414  0.5065925  0.7585788

 Al 
  0.7674670  0.7410586  0.5026348

