32 
charge = 0 
 Al 
  0.9836914  0.9891478  0.9869165

 Al 
  0.9993094  0.2525234  0.2447354

 Al 
  0.2625093  0.0046755  0.2370551

 Al 
  0.2388149  0.2678382  0.9988206

 Al 
  0.5360910  0.0025123  0.9998837

 Al 
  0.4814291  0.2511806  0.2558190

 Al 
  0.7581172  0.0144139  0.2539973

 Al 
  0.7504430  0.2636837  0.0082607

 Al 
  0.9887048  0.4960051  0.0051928

 Al 
  0.0075244  0.7528600  0.2484741

 Al 
  0.2465472  0.4972489  0.2484370

 Al 
  0.2477575  0.7582521  0.9858126

 Al 
  0.9908173  0.9945721  0.5043562

 Al 
  0.9881033  0.2399238  0.7630043

 Al 
  0.2436179  0.9660537  0.7297560

 Al 
  0.2615291  0.2442775  0.5047894

 Al 
  0.9990978  0.4834427  0.4995508

 Al 
  0.9836184  0.7400822  0.7389597

 Al 
  0.2622828  0.5133830  0.7363064

 Al 
  0.2570108  0.7374895  0.4783266

 Al 
  0.5098238  0.4911056  0.0198926

 Al 
  0.5045604  0.7499505  0.2479209

 Al 
  0.7512549  0.5088882  0.2702267

 Al 
  0.7557844  0.7516831  0.0147084

 Al 
  0.4990842  0.9768427  0.4889300

 Al 
  0.4795332  0.2574625  0.7645797

 Al 
  0.7546557  0.0136676  0.7332248

 Al 
  0.7462242  0.2672603  0.5020692

 Al 
  0.5064143  0.5121850  0.5151280

 Al 
  0.5006064  0.7566061  0.7477910

 Al 
  0.7385810  0.5042721  0.7659151

 Al 
  0.7664608  0.7405079  0.5011608

