32 
charge = 0 
 Al 
  0.9931105  0.9909237  0.9871108

 Al 
  0.0003737  0.2543104  0.2500198

 Al 
  0.2637023  0.9979172  0.2397505

 Al 
  0.2419348  0.2648619  0.9973120

 Al 
  0.5333634  0.0036496  0.9961462

 Al 
  0.4751040  0.2513452  0.2563685

 Al 
  0.7611059  0.0127667  0.2502636

 Al 
  0.7567175  0.2596022  0.0051619

 Al 
  0.9810071  0.5065343  0.0033550

 Al 
  0.0123286  0.7531422  0.2511212

 Al 
  0.2448839  0.4977947  0.2461475

 Al 
  0.2564403  0.7573301  0.9814527

 Al 
  0.9893594  0.9953827  0.4999295

 Al 
  0.9916823  0.2438481  0.7597557

 Al 
  0.2390488  0.9626207  0.7306643

 Al 
  0.2612717  0.2446933  0.5043773

 Al 
  0.0019120  0.4828833  0.4968232

 Al 
  0.9807534  0.7483714  0.7452280

 Al 
  0.2538748  0.5097483  0.7346282

 Al 
  0.2540679  0.7425004  0.4815541

 Al 
  0.5120625  0.4923345  0.0178271

 Al 
  0.5052151  0.7522883  0.2465695

 Al 
  0.7479048  0.5072670  0.2685053

 Al 
  0.7588176  0.7433592  0.0244691

 Al 
  0.5007413  0.9827397  0.4953158

 Al 
  0.4776632  0.2498775  0.7672207

 Al 
  0.7536694  0.0155722  0.7339587

 Al 
  0.7469927  0.2682120  0.5042337

 Al 
  0.4994282  0.5130179  0.5094587

 Al 
  0.5030271  0.7525011  0.7430734

 Al 
  0.7390142  0.5010841  0.7731783

 Al 
  0.7634226  0.7415202  0.4990186

