32 
charge = 0 
 Al 
  0.9921922  0.9907319  0.9870303

 Al 
  0.0002723  0.2541805  0.2495149

 Al 
  0.2636689  0.9985719  0.2395178

 Al 
  0.2416650  0.2651948  0.9974580

 Al 
  0.5337483  0.0035704  0.9964841

 Al 
  0.4755223  0.2513143  0.2563252

 Al 
  0.7608596  0.0129709  0.2505693

 Al 
  0.7561519  0.2600403  0.0054106

 Al 
  0.9816012  0.5055393  0.0035308

 Al 
  0.0119239  0.7531149  0.2508960

 Al 
  0.2450151  0.4977043  0.2463566

 Al 
  0.2556173  0.7575033  0.9817361

 Al 
  0.9894102  0.9952626  0.5004109

 Al 
  0.9912690  0.2433877  0.7601294

 Al 
  0.2394461  0.9627531  0.7305765

 Al 
  0.2613819  0.2446624  0.5043946

 Al 
  0.0016163  0.4828697  0.4970175

 Al 
  0.9809663  0.7476523  0.7445968

 Al 
  0.2547547  0.5101245  0.7346938

 Al 
  0.2543971  0.7420128  0.4812287

 Al 
  0.5119524  0.4921402  0.0180523

 Al 
  0.5051804  0.7520841  0.2467192

 Al 
  0.7481882  0.5074749  0.2687528

 Al 
  0.7585676  0.7440944  0.0236498

 Al 
  0.5005396  0.9820937  0.4946884

 Al 
  0.4777387  0.2506138  0.7670610

 Al 
  0.7538711  0.0154782  0.7338449

 Al 
  0.7469729  0.2682095  0.5040097

 Al 
  0.5000594  0.5130352  0.5100639

 Al 
  0.5027288  0.7528625  0.7434397

 Al 
  0.7389449  0.5013935  0.7726165

 Al 
  0.7637728  0.7413593  0.4992265

