32 
charge = 0 
 Al 
  0.9846121  0.9893000  0.9868744

 Al 
  0.9994183  0.2527474  0.2452527

 Al 
  0.2627160  0.0040147  0.2373484

 Al 
  0.2391441  0.2675932  0.9986783

 Al 
  0.5359512  0.0026471  0.9994938

 Al 
  0.4806086  0.2511794  0.2558797

 Al 
  0.7584526  0.0143000  0.2535679

 Al 
  0.7511076  0.2633224  0.0079055

 Al 
  0.9878150  0.4970497  0.0050171

 Al 
  0.0080640  0.7528872  0.2487649

 Al 
  0.2463504  0.4972675  0.2481969

 Al 
  0.2486350  0.7582434  0.9852445

 Al 
  0.9905772  0.9946104  0.5039812

 Al 
  0.9883880  0.2402257  0.7627444

 Al 
  0.2431266  0.9655141  0.7298426

 Al 
  0.2615898  0.2443258  0.5047275

 Al 
  0.9993441  0.4833276  0.4992104

 Al 
  0.9832558  0.7409806  0.7395438

 Al 
  0.2615254  0.5130489  0.7360403

 Al 
  0.2567719  0.7379771  0.4786298

 Al 
  0.5101517  0.4911391  0.0197156

 Al 
  0.5046508  0.7502091  0.2478182

 Al 
  0.7508824  0.5087718  0.2701537

 Al 
  0.7561235  0.7508180  0.0157987

 Al 
  0.4992030  0.9773464  0.4895438

 Al 
  0.4792362  0.2567249  0.7649312

 Al 
  0.7546792  0.0139523  0.7332545

 Al 
  0.7463517  0.2674533  0.5022660

 Al 
  0.5056779  0.5123632  0.5146305

 Al 
  0.5007747  0.7561618  0.7472303

 Al 
  0.7385884  0.5039602  0.7667566

 Al 
  0.7662269  0.7405388  0.5009542

