32 
charge = 0 
 Al 
  0.9864957  0.9896292  0.9868323

 Al 
  0.9996362  0.2531694  0.2463183

 Al 
  0.2630736  0.0026583  0.2379276

 Al 
  0.2398074  0.2670561  0.9983800

 Al 
  0.5355725  0.0029120  0.9987129

 Al 
  0.4790703  0.2511905  0.2560009

 Al 
  0.7591109  0.0140327  0.2527375

 Al 
  0.7524293  0.2625575  0.0072138

 Al 
  0.9860774  0.4991869  0.0046508

 Al 
  0.0091146  0.7529429  0.2493391

 Al 
  0.2459730  0.4973281  0.2477179

 Al 
  0.2504084  0.7581704  0.9841790

 Al 
  0.9901577  0.9947193  0.5031682

 Al 
  0.9890166  0.2409027  0.7621714

 Al 
  0.2421501  0.9645537  0.7300233

 Al 
  0.2616541  0.2444198  0.5046136

 Al 
  0.9998738  0.4831283  0.4985644

 Al 
  0.9825801  0.7427603  0.7407653

 Al 
  0.2599277  0.5123509  0.7355688

 Al 
  0.2562447  0.7389783  0.4792609

 Al 
  0.5107470  0.4912764  0.0193357

 Al 
  0.5048178  0.7507128  0.2475806

 Al 
  0.7501510  0.5085070  0.2699285

 Al 
  0.7567893  0.7490681  0.0179348

 Al 
  0.4994777  0.9784293  0.4908123

 Al 
  0.4787127  0.2552064  0.7655896

 Al 
  0.7546371  0.0144622  0.7333461

 Al 
  0.7465781  0.2677726  0.5026806

 Al 
  0.5042102  0.5126615  0.5135686

 Al 
  0.5011695  0.7552832  0.7461549

 Al 
  0.7386330  0.5033204  0.7683964

 Al 
  0.7656997  0.7406527  0.5005247

