32 
charge = 0 
 Al 
  0.9855477  0.9894609  0.9868472

 Al 
  0.9995273  0.2529627  0.2457824

 Al 
  0.2629041  0.0033402  0.2376405

 Al 
  0.2394758  0.2673321  0.9985310

 Al 
  0.5357779  0.0027808  0.9991028

 Al 
  0.4798215  0.2511831  0.2559403

 Al 
  0.7587855  0.0141726  0.2531484

 Al 
  0.7517710  0.2629461  0.0075566

 Al 
  0.9869375  0.4981127  0.0048364

 Al 
  0.0085936  0.7529145  0.2490533

 Al 
  0.2461586  0.4972935  0.2479568

 Al 
  0.2495198  0.7582174  0.9846988

 Al 
  0.9903582  0.9946599  0.5035840

 Al 
  0.9886936  0.2405524  0.7624660

 Al 
  0.2426365  0.9650129  0.7299317

 Al 
  0.2616318  0.2443728  0.5046693

 Al 
  0.9996040  0.4832224  0.4988800

 Al 
  0.9829093  0.7418754  0.7401478

 Al 
  0.2607396  0.5127036  0.7357940

 Al 
  0.2565158  0.7384733  0.4789416

 Al 
  0.5104599  0.4911960  0.0195300

 Al 
  0.5047362  0.7504628  0.2477043

 Al 
  0.7505136  0.5086444  0.2700535

 Al 
  0.7564588  0.7499443  0.0168766

 Al 
  0.4993342  0.9778761  0.4901738

 Al 
  0.4789627  0.2559712  0.7652690

 Al 
  0.7546730  0.0142171  0.7332954

 Al 
  0.7464705  0.2676241  0.5024702

 Al 
  0.5049428  0.5125217  0.5141095

 Al 
  0.5009628  0.7557200  0.7466846

 Al 
  0.7386058  0.5036421  0.7675858

 Al 
  0.7659732  0.7405871  0.5007413

