32 
charge = 0 
 Al 
  0.9903173  0.9903520  0.9869103

 Al 
  0.0000656  0.2538884  0.2484728

 Al 
  0.2635488  0.9999146  0.2390216

 Al 
  0.2410846  0.2658445  0.9977600

 Al 
  0.5344562  0.0033823  0.9971932

 Al 
  0.4765111  0.2512598  0.2562274

 Al 
  0.7603262  0.0133595  0.2512314

 Al 
  0.7549701  0.2609054  0.0059552

 Al 
  0.9829340  0.5034788  0.0038971

 Al 
  0.0110576  0.7530580  0.2504133

 Al 
  0.2453010  0.4975459  0.2467922

 Al 
  0.2539255  0.7577979  0.9824118

 Al 
  0.9895748  0.9950473  0.5013626

 Al 
  0.9904683  0.2425004  0.7608534

 Al 
  0.2402926  0.9631627  0.7303958

 Al 
  0.2615489  0.2445906  0.5044453

 Al 
  0.0010247  0.4828932  0.4974605

 Al 
  0.9814366  0.7461227  0.7433184

 Al 
  0.2565108  0.5108782  0.7348931

 Al 
  0.2550443  0.7410153  0.4805715

 Al 
  0.5116541  0.4917900  0.0184966

 Al 
  0.5050864  0.7516546  0.2470199

 Al 
  0.7487959  0.5078585  0.2692107

 Al 
  0.7580231  0.7456611  0.0218888

 Al 
  0.5001535  0.9808240  0.4934087

 Al 
  0.4779615  0.2521224  0.7666650

 Al 
  0.7542201  0.0152257  0.7336431

 Al 
  0.7468925  0.2681476  0.5035592

 Al 
  0.5013799  0.5130006  0.5112643

 Al 
  0.5021608  0.7536236  0.7442466

 Al 
  0.7388174  0.5020259  0.7713591

 Al 
  0.7644572  0.7410710  0.4996522

