32 
charge = 0 
 Al 
  0.9966487  0.9917046  0.9875563

 Al 
  0.0007623  0.2547250  0.2519120

 Al 
  0.2636714  0.9954235  0.2405871

 Al 
  0.2428692  0.2634944  0.9967786

 Al 
  0.5316395  0.0038600  0.9949260

 Al 
  0.4739184  0.2514876  0.2565034

 Al 
  0.7619388  0.0119004  0.2491943

 Al 
  0.7588015  0.2578189  0.0043265

 Al 
  0.9791359  0.5102235  0.0027065

 Al 
  0.0137493  0.7532399  0.2519133

 Al 
  0.2444421  0.4982352  0.2453567

 Al 
  0.2595565  0.7564737  0.9806717

 Al 
  0.9893409  0.9959334  0.4980050

 Al 
  0.9934100  0.2457638  0.7581914

 Al 
  0.2376479  0.9625538  0.7309948

 Al 
  0.2606641  0.2447849  0.5043674

 Al 
  0.0030555  0.4831073  0.4962254

 Al 
  0.9800319  0.7509393  0.7476672

 Al 
  0.2503849  0.5082496  0.7345824

 Al 
  0.2527313  0.7443604  0.4828338

 Al 
  0.5122370  0.4932008  0.0169039

 Al 
  0.5052770  0.7530432  0.2459915

 Al 
  0.7469061  0.5063351  0.2674410

 Al 
  0.7596555  0.7407975  0.0273452

 Al 
  0.5015903  0.9853695  0.4977142

 Al 
  0.4775927  0.2470818  0.7676019

 Al 
  0.7527226  0.0157641  0.7344896

 Al 
  0.7469445  0.2680548  0.5051210

 Al 
  0.4970979  0.5127358  0.5070306

 Al 
  0.5042807  0.7511782  0.7418581

 Al 
  0.7393161  0.4999072  0.7749678

 Al 
  0.7619796  0.7422529  0.4982340

