32 
charge = 0 
 Al 
  0.0008069  0.9927318  0.9883917

 Al 
  0.0012165  0.2550282  0.2539874

 Al 
  0.2633236  0.9926105  0.2414398

 Al 
  0.2437045  0.2616913  0.9962527

 Al 
  0.5291087  0.0038637  0.9937045

 Al 
  0.4734444  0.2516806  0.2565826

 Al 
  0.7626615  0.0107210  0.2481548

 Al 
  0.7610725  0.2555022  0.0036223

 Al 
  0.9779838  0.5141392  0.0020395

 Al 
  0.0151144  0.7533229  0.2526682

 Al 
  0.2440411  0.4989468  0.2444483

 Al 
  0.2631095  0.7550480  0.9804143

 Al 
  0.9896849  0.9967922  0.4956314

 Al 
  0.9957007  0.2482934  0.7560851

 Al 
  0.2363150  0.9634672  0.7313759

 Al 
  0.2595515  0.2448134  0.5044552

 Al 
  0.0043550  0.4837892  0.4958331

 Al 
  0.9793438  0.7534974  0.7505025

 Al 
  0.2460967  0.5063982  0.7349760

 Al 
  0.2510606  0.7464804  0.4844080

 Al 
  0.5118955  0.4944322  0.0156935

 Al 
  0.5051817  0.7538884  0.2453715

 Al 
  0.7459371  0.5048933  0.2660264

 Al 
  0.7603015  0.7385204  0.0301111

 Al 
  0.5027078  0.9887605  0.5004542

 Al 
  0.4779652  0.2439298  0.7675053

 Al 
  0.7513329  0.0156428  0.7353349

 Al 
  0.7466239  0.2675412  0.5061990

 Al 
  0.4945522  0.5119326  0.5039936

 Al 
  0.5059502  0.7497525  0.7408259

 Al 
  0.7397295  0.4985533  0.7761670

 Al 
  0.7601270  0.7433320  0.4973442

