32 
charge = 0 
 Al 
  0.9957849  0.9915066  0.9874264

 Al 
  0.0006670  0.2546371  0.2514591

 Al 
  0.2637023  0.9960262  0.2403928

 Al 
  0.2426575  0.2638409  0.9969036

 Al 
  0.5320962  0.0038241  0.9952106

 Al 
  0.4741436  0.2514504  0.2564762

 Al 
  0.7617531  0.0121244  0.2494406

 Al 
  0.7583053  0.2582694  0.0045122

 Al 
  0.9795258  0.5093473  0.0028600

 Al 
  0.0134226  0.7532177  0.2517313

 Al 
  0.2445411  0.4981140  0.2455473

 Al 
  0.2588028  0.7567113  0.9808153

 Al 
  0.9893186  0.9957849  0.4984852

 Al 
  0.9929682  0.2452750  0.7585912

 Al 
  0.2379697  0.9625019  0.7309143

 Al 
  0.2608398  0.2447663  0.5043612

 Al 
  0.0027759  0.4830256  0.4963492

 Al 
  0.9801940  0.7503428  0.7470719

 Al 
  0.2512524  0.5086221  0.7345626

 Al 
  0.2530667  0.7439100  0.4825170

 Al 
  0.5122321  0.4929731  0.0171378

 Al 
  0.5052733  0.7528637  0.2461314

 Al 
  0.7471363  0.5065838  0.2677157

 Al 
  0.7594711  0.7413791  0.0266856

 Al 
  0.5013725  0.9847062  0.4971313

 Al 
  0.4775778  0.2477575  0.7675449

 Al 
  0.7529763  0.0157430  0.7343448

 Al 
  0.7469754  0.2681179  0.5049020

 Al 
  0.4976523  0.5128385  0.5076382

 Al 
  0.5039602  0.7514913  0.7421266

 Al 
  0.7392382  0.5001931  0.7745904

 Al 
  0.7623447  0.7420573  0.4984233

