32 
charge = 0 
 Al 
  0.9975001  0.9919039  0.9876986

 Al 
  0.0008552  0.2548030  0.2523526

 Al 
  0.2636268  0.9948344  0.2407727

 Al 
  0.2430647  0.2631429  0.9966598

 Al 
  0.5311668  0.0038847  0.9946550

 Al 
  0.4737389  0.2515259  0.2565269

 Al 
  0.7621108  0.0116739  0.2489629

 Al 
  0.7592817  0.2573647  0.0041570

 Al 
  0.9787993  0.5110688  0.0025605

 Al 
  0.0140575  0.7532597  0.2520841

 Al 
  0.2443493  0.4983639  0.2451698

 Al 
  0.2602940  0.7562200  0.9805591

 Al 
  0.9893792  0.9960905  0.4975274

 Al 
  0.9938567  0.2462588  0.7577843

 Al 
  0.2373459  0.9626504  0.7310727

 Al 
  0.2604723  0.2447985  0.5043760

 Al 
  0.0033278  0.4832075  0.4961178

 Al 
  0.9798785  0.7515049  0.7482526

 Al 
  0.2495223  0.5078783  0.7346220

 Al 
  0.2523972  0.7448010  0.4831481

 Al 
  0.5122185  0.4934360  0.0166675

 Al 
  0.5052720  0.7532189  0.2458566

 Al 
  0.7466895  0.5060727  0.2671625

 Al 
  0.7598213  0.7402591  0.0279677

 Al 
  0.5018093  0.9860378  0.4982847

 Al 
  0.4776286  0.2464222  0.7676328

 Al 
  0.7524578  0.0157703  0.7346418

 Al 
  0.7469036  0.2679781  0.5053401

 Al 
  0.4965608  0.5126145  0.5064254

 Al 
  0.5046074  0.7508762  0.7416118

 Al 
  0.7393966  0.4996275  0.7752995

 Al 
  0.7616133  0.7424546  0.4980484

