32 
charge = 0 
 Al 
  0.9949074  0.9913111  0.9873088

 Al 
  0.0005718  0.2545381  0.2509925

 Al 
  0.2637171  0.9966425  0.2401886

 Al 
  0.2424311  0.2641849  0.9970348

 Al 
  0.5325355  0.0037770  0.9955101

 Al 
  0.4744159  0.2514133  0.2564440

 Al 
  0.7615514  0.0123434  0.2496993

 Al 
  0.7577942  0.2587162  0.0047126

 Al 
  0.9799676  0.5084402  0.0030184

 Al 
  0.0130773  0.7531929  0.2515395

 Al 
  0.2446475  0.4980001  0.2457428

 Al 
  0.2580318  0.7569328  0.9809935

 Al 
  0.9893136  0.9956438  0.4989666

 Al 
  0.9925338  0.2447923  0.7589859

 Al 
  0.2383112  0.9624957  0.7308339

 Al 
  0.2610007  0.2447453  0.5043612

 Al 
  0.0024925  0.4829600  0.4964903

 Al 
  0.9803685  0.7497166  0.7464668

 Al 
  0.2521237  0.5089958  0.7345626

 Al 
  0.2534008  0.7434496  0.4821977

 Al 
  0.5122011  0.4927516  0.0173692

 Al 
  0.5052609  0.7526781  0.2462737

 Al 
  0.7473788  0.5068227  0.2679855

 Al 
  0.7592706  0.7419992  0.0259876

 Al 
  0.5011584  0.9840466  0.4965373

 Al 
  0.4775840  0.2484481  0.7674632

 Al 
  0.7532201  0.0157047  0.7342087

 Al 
  0.7469940  0.2681649  0.5046805

 Al 
  0.4982253  0.5129189  0.5082446

 Al 
  0.5036434  0.7518155  0.7424187

 Al 
  0.7391602  0.5004839  0.7741671

 Al 
  0.7627073  0.7418705  0.4986164

