32 
charge = 0 
 Al 
  0.0040444  0.9936389  0.9893025

 Al 
  0.0015729  0.2551247  0.2554478

 Al 
  0.2628372  0.9905809  0.2420103

 Al 
  0.2441327  0.2601332  0.9959618

 Al 
  0.5267474  0.0036434  0.9929669

 Al 
  0.4737897  0.2518291  0.2565715

 Al 
  0.7630055  0.0096864  0.2474976

 Al 
  0.7627197  0.2535271  0.0032932

 Al 
  0.9780357  0.5167430  0.0016138

 Al 
  0.0159138  0.7533501  0.2531088

 Al 
  0.2438171  0.4996374  0.2437404

 Al 
  0.2657777  0.7536124  0.9807101

 Al 
  0.9902158  0.9976325  0.4937466

 Al 
  0.9976511  0.2504344  0.7542510

 Al 
  0.2355564  0.9649658  0.7316866

 Al 
  0.2583795  0.2447577  0.5045765

 Al 
  0.0052609  0.4846901  0.4957453

 Al 
  0.9788971  0.7551173  0.7526335

 Al 
  0.2426588  0.5049069  0.7356393

 Al 
  0.2497265  0.7480570  0.4857173

 Al 
  0.5111876  0.4955064  0.0146404

 Al 
  0.5049713  0.7545307  0.2449903

 Al 
  0.7453505  0.5034553  0.2648718

 Al 
  0.7604698  0.7374647  0.0317757

 Al 
  0.5036322  0.9916168  0.5024739

 Al 
  0.4786001  0.2416390  0.7669719

 Al 
  0.7501398  0.0153025  0.7361863

 Al 
  0.7461735  0.2669162  0.5070454

 Al 
  0.4926971  0.5109438  0.5015135

 Al 
  0.5073610  0.7487154  0.7403124

 Al 
  0.7400822  0.4975249  0.7763230

 Al 
  0.7585961  0.7443159  0.4966784

