32 
charge = 0 
 Al 
  0.0032350  0.9934026  0.9890525

 Al 
  0.0014838  0.2551124  0.2550975

 Al 
  0.2629758  0.9910722  0.2418742

 Al 
  0.2440436  0.2605354  0.9960225

 Al 
  0.5273699  0.0037176  0.9931315

 Al 
  0.4736449  0.2517932  0.2565801

 Al 
  0.7629387  0.0099550  0.2476511

 Al 
  0.7623175  0.2540345  0.0033575

 Al 
  0.9779392  0.5161341  0.0017115

 Al 
  0.0157381  0.7533476  0.2530110

 Al 
  0.2438654  0.4994555  0.2439186

 Al 
  0.2651193  0.7539973  0.9805975

 Al 
  0.9900624  0.9974085  0.4942181

 Al 
  0.9971524  0.2498886  0.7547250

 Al 
  0.2357222  0.9645265  0.7316061

 Al 
  0.2586964  0.2447787  0.5045443

 Al 
  0.0050468  0.4844327  0.4957514

 Al 
  0.9790023  0.7547423  0.7521088

 Al 
  0.2435238  0.5052819  0.7354438

 Al 
  0.2500606  0.7476697  0.4853807

 Al 
  0.5114004  0.4952304  0.0149139

 Al 
  0.5050356  0.7543711  0.2450745

 Al 
  0.7454829  0.5038426  0.2651614

 Al 
  0.7604574  0.7376640  0.0314007

 Al 
  0.5033996  0.9908854  0.5019801

 Al 
  0.4784144  0.2421947  0.7671440

 Al 
  0.7504418  0.0154077  0.7359561

 Al 
  0.7463022  0.2670895  0.5068338

 Al 
  0.4931526  0.5112210  0.5021422

 Al 
  0.5070009  0.7489691  0.7404176

 Al 
  0.7399918  0.4977798  0.7763502

 Al 
  0.7589847  0.7440597  0.4968430

