32 
charge = 0 
 Al 
  0.0090243  0.9952366  0.9911551

 Al 
  0.0021298  0.2550604  0.2573808

 Al 
  0.2617853  0.9878669  0.2427565

 Al 
  0.2444347  0.2574885  0.9957799

 Al 
  0.5224766  0.0028984  0.9922689

 Al 
  0.4754542  0.2520110  0.2564118

 Al 
  0.7631503  0.0079278  0.2467031

 Al 
  0.7650884  0.2502327  0.0031286

 Al 
  0.9798413  0.5198196  0.0011299

 Al 
  0.0166427  0.7533105  0.2535184

 Al 
  0.2436179  0.5008675  0.2426179

 Al 
  0.2696537  0.7508972  0.9819006

 Al 
  0.9914212  0.9992005  0.4908866

 Al 
  0.0008279  0.2538897  0.7511695

 Al 
  0.2348881  0.9685523  0.7322546

 Al 
  0.2561061  0.2445225  0.5047659

 Al 
  0.0063450  0.4867581  0.4959049

 Al 
  0.9783315  0.7570120  0.7556915

 Al 
  0.2373323  0.5025840  0.7372642

 Al 
  0.2477018  0.7503205  0.4879486

 Al 
  0.5093770  0.4972378  0.0128112

 Al 
  0.5044292  0.7555183  0.2446636

 Al 
  0.7447305  0.5006547  0.2631095

 Al 
  0.7600762  0.7372110  0.0335095

 Al 
  0.5050567  0.9963232  0.5052819

 Al 
  0.4801025  0.2385142  0.7653730

 Al 
  0.7483268  0.0144028  0.7378595

 Al 
  0.7451846  0.2656428  0.5083189

 Al 
  0.4900017  0.5088609  0.4975756

 Al 
  0.5096295  0.7471858  0.7399473

 Al 
  0.7406750  0.4959779  0.7752277

 Al 
  0.7561569  0.7460150  0.4956809

