32 
charge = 0 
 Al 
  0.0098844  0.9955361  0.9915289

 Al 
  0.0022276  0.2550270  0.2576741

 Al 
  0.2615737  0.9874561  0.2428729

 Al 
  0.2444508  0.2570046  0.9957836

 Al 
  0.5216660  0.0027226  0.9922046

 Al 
  0.4758651  0.2520333  0.2563660

 Al 
  0.7631293  0.0076061  0.2465880

 Al 
  0.7654819  0.2496386  0.0031360

 Al 
  0.9803549  0.5202341  0.0010655

 Al 
  0.0167059  0.7532932  0.2535580

 Al 
  0.2436006  0.5010915  0.2424187

 Al 
  0.2702911  0.7503750  0.9821803

 Al 
  0.9916700  0.9995013  0.4904064

 Al 
  0.0013861  0.2544924  0.7506138

 Al 
  0.2348312  0.9693134  0.7323697

 Al 
  0.2556631  0.2444656  0.5047894

 Al 
  0.0064873  0.4871987  0.4959594

 Al 
  0.9782486  0.7572756  0.7561878

 Al 
  0.2364202  0.5021855  0.7376157

 Al 
  0.2473615  0.7506918  0.4883669

 Al 
  0.5089872  0.4975373  0.0124697

 Al 
  0.5043117  0.7556878  0.2446451

 Al 
  0.7446550  0.5001015  0.2628125

 Al 
  0.7599290  0.7373311  0.0337137

 Al 
  0.5052968  0.9971672  0.5057250

 Al 
  0.4804168  0.2380315  0.7650104

 Al 
  0.7480335  0.0142060  0.7381949

 Al 
  0.7449842  0.2653916  0.5085318

 Al 
  0.4895475  0.5084414  0.4968863

 Al 
  0.5100255  0.7469247  0.7399275

 Al 
  0.7407826  0.4957131  0.7748886

 Al 
  0.7557287  0.7463257  0.4955101

