32 
charge = 0 
 Al 
  0.0134065  0.9968257  0.9932132

 Al 
  0.0026385  0.2548401  0.2587533

 Al 
  0.2606294  0.9859710  0.2433184

 Al 
  0.2444396  0.2549453  0.9959074

 Al 
  0.5181352  0.0018724  0.9921081

 Al 
  0.4778848  0.2520853  0.2561111

 Al 
  0.7629065  0.0062460  0.2461697

 Al 
  0.7670536  0.2471437  0.0032523

 Al 
  0.9830169  0.5215868  0.0008601

 Al 
  0.0167739  0.7531904  0.2536223

 Al 
  0.2435857  0.5020333  0.2415759

 Al 
  0.2727848  0.7481102  0.9835070

 Al 
  0.9927912  0.0008106  0.4885068

 Al 
  0.0036657  0.2569341  0.7482922

 Al 
  0.2347594  0.9728120  0.7329154

 Al 
  0.2537238  0.2441835  0.5048327

 Al 
  0.0069155  0.4892567  0.4962304

 Al 
  0.9779565  0.7582013  0.7581122

 Al 
  0.2327471  0.5005916  0.7392555

 Al 
  0.2460064  0.7521459  0.4902059

 Al 
  0.5071878  0.4987327  0.0109858

 Al 
  0.5037671  0.7563747  0.2446983

 Al 
  0.7444322  0.4976400  0.2616071

 Al 
  0.7591060  0.7382803  0.0342718

 Al 
  0.5062398  0.0006868  0.5073907

 Al 
  0.4818511  0.2362445  0.7632877

 Al 
  0.7469407  0.0132741  0.7397183

 Al 
  0.7440882  0.2642790  0.5093758

 Al 
  0.4877085  0.5065776  0.4940585

 Al 
  0.5116405  0.7458455  0.7399522

 Al 
  0.7412492  0.4946364  0.7730942

 Al 
  0.7539652  0.7476412  0.4948109

