32 
charge = 0 
 Al 
  0.0160809  0.9978627  0.9946562

 Al 
  0.0029652  0.2546545  0.2594377

 Al 
  0.2598386  0.9850614  0.2436352

 Al 
  0.2443703  0.2533055  0.9961178

 Al 
  0.5152294  0.0010977  0.9922083

 Al 
  0.4797560  0.2520754  0.2558388

 Al 
  0.7625934  0.0051730  0.2459037

 Al 
  0.7682132  0.2451995  0.0034169

 Al 
  0.9855923  0.5222538  0.0007611

 Al 
  0.0166205  0.7530815  0.2535716

 Al 
  0.2436315  0.5027585  0.2409126

 Al 
  0.2745384  0.7462749  0.9846802

 Al 
  0.9937466  0.0018811  0.4871529

 Al 
  0.0053574  0.2587261  0.7464927

 Al 
  0.2348696  0.9758564  0.7334216

 Al 
  0.2521261  0.2439260  0.5047906

 Al 
  0.0070751  0.4910970  0.4964717

 Al 
  0.9777944  0.7587619  0.7594525

 Al 
  0.2300579  0.4994381  0.7407084

 Al 
  0.2450200  0.7531818  0.4917516

 Al 
  0.5056371  0.4995928  0.0097681

 Al 
  0.5032907  0.7568747  0.2448913

 Al 
  0.7443443  0.4955745  0.2606963

 Al 
  0.7582620  0.7394510  0.0344018

 Al 
  0.5069093  0.0034144  0.5084884

 Al 
  0.4830800  0.2351084  0.7617531

 Al 
  0.7462514  0.0124313  0.7410425

 Al 
  0.7433432  0.2633508  0.5099822

 Al 
  0.4863163  0.5050270  0.4919175

 Al 
  0.5128459  0.7450077  0.7400698

 Al 
  0.7416328  0.4938221  0.7713356

 Al 
  0.7526113  0.7486770  0.4942750

