32 
charge = 0 
 Al 
  0.0178333  0.9985632  0.9956834

 Al 
  0.0031867  0.2545171  0.2598201

 Al 
  0.2592867  0.9845750  0.2438369

 Al 
  0.2443085  0.2521979  0.9963096

 Al 
  0.5132147  0.0005334  0.9923531

 Al 
  0.4811371  0.2520395  0.2556161

 Al 
  0.7623175  0.0044577  0.2457539

 Al 
  0.7689570  0.2439062  0.0035543

 Al 
  0.9875254  0.5225224  0.0007227

 Al 
  0.0164237  0.7529961  0.2534912

 Al 
  0.2436897  0.5032375  0.2404683

 Al 
  0.2756089  0.7450299  0.9855168

 Al 
  0.9944186  0.0026150  0.4863163

 Al 
  0.0064304  0.2598485  0.7453022

 Al 
  0.2350156  0.9780308  0.7338077

 Al 
  0.2510272  0.2437404  0.5047176

 Al 
  0.0070987  0.4924434  0.4966388

 Al 
  0.9777251  0.7590726  0.7602681

 Al 
  0.2283612  0.4987241  0.7417591

 Al 
  0.2443938  0.7538265  0.4928444

 Al 
  0.5045480  0.5001213  0.0089216

 Al 
  0.5029491  0.7571853  0.2451017

 Al 
  0.7443233  0.4941327  0.2600898

 Al 
  0.7576110  0.7404138  0.0343411

 Al 
  0.5073202  0.0052163  0.5091208

 Al 
  0.4839463  0.2344797  0.7606492

 Al 
  0.7458789  0.0118101  0.7419942

 Al 
  0.7428296  0.2626999  0.5103609

 Al 
  0.4854005  0.5039577  0.4905252

 Al 
  0.5136219  0.7444458  0.7401861

 Al 
  0.7418989  0.4932887  0.7700077

 Al 
  0.7517140  0.7493726  0.4939223

