32 
charge = 0 
 Al 
  0.0107544  0.9958455  0.9919212

 Al 
  0.0023279  0.2549874  0.2579588

 Al 
  0.2613509  0.9870600  0.2429867

 Al 
  0.2444594  0.2565071  0.9957972

 Al 
  0.5208257  0.0025321  0.9921563

 Al 
  0.4763155  0.2520519  0.2563128

 Al 
  0.7630946  0.0072769  0.2464767

 Al 
  0.7658755  0.2490310  0.0031521

 Al 
  0.9809304  0.5206190  0.0010074

 Al 
  0.0167516  0.7532721  0.2535877

 Al 
  0.2435894  0.5013217  0.2422133

 Al 
  0.2709247  0.7498354  0.9824823

 Al 
  0.9919323  0.9998131  0.4899275

 Al 
  0.0019516  0.2551000  0.7500470

 Al 
  0.2347891  0.9701203  0.7324934

 Al 
  0.2552027  0.2444025  0.5048079

 Al 
  0.0066160  0.4876689  0.4960188

 Al 
  0.9781694  0.7575269  0.7566791

 Al 
  0.2355032  0.5017870  0.7379907

 Al 
  0.2470212  0.7510594  0.4888013

 Al 
  0.5085714  0.4978367  0.0121157

 Al 
  0.5041854  0.7558586  0.2446389

 Al 
  0.7445881  0.4995223  0.2625130

 Al 
  0.7597582  0.7374994  0.0338931

 Al 
  0.5055356  0.9980261  0.5061581

 Al 
  0.4807510  0.2375613  0.7646193

 Al 
  0.7477476  0.0139944  0.7385488

 Al 
  0.7447738  0.2651292  0.5087446

 Al 
  0.4890921  0.5080033  0.4961895

 Al 
  0.5104252  0.7466598  0.7399176

 Al 
  0.7408940  0.4954470  0.7745037

 Al 
  0.7552955  0.7466450  0.4953381

