32 
charge = 0 
 Al 
  0.0143000  0.9971672  0.9936785

 Al 
  0.0027462  0.2547819  0.2589946

 Al 
  0.2603720  0.9856455  0.2434261

 Al 
  0.2444198  0.2544045  0.9959655

 Al 
  0.5171873  0.0016262  0.9921242

 Al 
  0.4784776  0.2520878  0.2560282

 Al 
  0.7628162  0.0058908  0.2460757

 Al 
  0.7674434  0.2464989  0.0033006

 Al 
  0.9838251  0.5218442  0.0008217

 Al 
  0.0167417  0.7531570  0.2536149

 Al 
  0.2435956  0.5022746  0.2413569

 Al 
  0.2733850  0.7475075  0.9838845

 Al 
  0.9931006  0.0011608  0.4880451

 Al 
  0.0042362  0.2575405  0.7476944

 Al 
  0.2347805  0.9737921  0.7330739

 Al 
  0.2532016  0.2441018  0.5048277

 Al 
  0.0069848  0.4898433  0.4963084

 Al 
  0.9778959  0.7584018  0.7585726

 Al 
  0.2318375  0.5001992  0.7397208

 Al 
  0.2456722  0.7524986  0.4907059

 Al 
  0.5066866  0.4990260  0.0105886

 Al 
  0.5036137  0.7565442  0.2447465

 Al 
  0.7443951  0.4969680  0.2613039

 Al 
  0.7588449  0.7386293  0.0343436

 Al 
  0.5064687  0.0015940  0.5077744

 Al 
  0.4822484  0.2358435  0.7627964

 Al 
  0.7466957  0.0130055  0.7401441

 Al 
  0.7438456  0.2639770  0.5095824

 Al 
  0.4872444  0.5060715  0.4933419

 Al 
  0.5120452  0.7455683  0.7399832

 Al 
  0.7413742  0.4943641  0.7725434

 Al 
  0.7535147  0.7479840  0.4946327

