32 
charge = 0 
 Al 
  0.0226239  0.0005408  0.9988850

 Al 
  0.0038414  0.2540815  0.2605490

 Al 
  0.2576122  0.9837768  0.2444087

 Al 
  0.2441439  0.2490285  0.9970880

 Al 
  0.5071630  0.9987624  0.9930969

 Al 
  0.4856368  0.2517450  0.2547461

 Al 
  0.7612247  0.0024726  0.2454668

 Al 
  0.7709210  0.2403111  0.0040283

 Al 
  0.9938295  0.5225026  0.0007463

 Al 
  0.0154386  0.7527251  0.2530555

 Al 
  0.2439681  0.5045419  0.2392332

 Al 
  0.2780951  0.7414905  0.9880625

 Al 
  0.9964668  0.0047560  0.4843052

 Al 
  0.0090862  0.2625613  0.7420239

 Al 
  0.2357532  0.9847879  0.7351653

 Al 
  0.2477971  0.2431711  0.5042325

 Al 
  0.0067781  0.4968244  0.4970893

 Al 
  0.9777462  0.7597173  0.7622011

 Al 
  0.2241486  0.4970521  0.7450881

 Al 
  0.2427689  0.7554366  0.4962663

 Al 
  0.5013217  0.5013304  0.0063388

 Al 
  0.5018848  0.7579291  0.2461388

 Al 
  0.7444174  0.4897988  0.2583139

 Al 
  0.7554341  0.7438270  0.0334612

 Al 
  0.5083028  0.0101493  0.5103968

 Al 
  0.4865898  0.2333610  0.7572534

 Al 
  0.7452688  0.0097545  0.7450250

 Al 
  0.7413383  0.2607148  0.5112866

 Al 
  0.4828560  0.5008341  0.4868138

 Al 
  0.5156527  0.7428432  0.7406515

 Al 
  0.7427021  0.4918296  0.7656292

 Al 
  0.7491882  0.7513452  0.4929533

