32 
charge = 0 
 Al 
  0.0211314  0.9999171  0.9978145

 Al 
  0.0036273  0.2542275  0.2603794

 Al 
  0.2581654  0.9839290  0.2442218

 Al 
  0.2441884  0.2500408  0.9968009

 Al 
  0.5091505  0.9993515  0.9928060

 Al 
  0.4841035  0.2518774  0.2550691

 Al 
  0.7616269  0.0030927  0.2455324

 Al 
  0.7703220  0.2414410  0.0038649

 Al 
  0.9916935  0.5226400  0.0007165

 Al 
  0.0158235  0.7528130  0.2532288

 Al 
  0.2438605  0.5041384  0.2396193

 Al 
  0.2774058  0.7426105  0.9872284

 Al 
  0.9957910  0.0040666  0.4848807

 Al 
  0.0083164  0.2617903  0.7430486

 Al 
  0.2354636  0.9825368  0.7346827

 Al 
  0.2488416  0.2433568  0.5044404

 Al 
  0.0069464  0.4953282  0.4969531

 Al 
  0.9776966  0.7595466  0.7616504

 Al 
  0.2253750  0.4975162  0.7439681

 Al 
  0.2432602  0.7549602  0.4951178

 Al 
  0.5023625  0.5010024  0.0071977

 Al 
  0.5022400  0.7577174  0.2457267

 Al 
  0.7443629  0.4912183  0.2588968

 Al 
  0.7561804  0.7426353  0.0338671

 Al 
  0.5080231  0.0086159  0.5100824

 Al 
  0.4857173  0.2335973  0.7583733

 Al 
  0.7453827  0.0104636  0.7440003

 Al 
  0.7418160  0.2613732  0.5110193

 Al 
  0.4836580  0.5018403  0.4879499

 Al 
  0.5150376  0.7433555  0.7404831

 Al 
  0.7424373  0.4922863  0.7671242

 Al 
  0.7499926  0.7507165  0.4932553

