32 
charge = 0 
 Al 
  0.0246275  0.0013811  0.0004653

 Al 
  0.0041520  0.2538686  0.2606690

 Al 
  0.2568078  0.9837582  0.2446921

 Al 
  0.2441154  0.2476338  0.9975546

 Al 
  0.5043005  0.9979159  0.9935882

 Al 
  0.4879461  0.2514752  0.2541953

 Al 
  0.7605651  0.0016447  0.2454297

 Al 
  0.7716982  0.2387753  0.0042684

 Al 
  0.9969890  0.5220781  0.0008304

 Al 
  0.0147728  0.7526100  0.2527548

 Al 
  0.2441525  0.5050715  0.2387221

 Al 
  0.2788377  0.7399733  0.9892468

 Al 
  0.9974370  0.0057175  0.4836320

 Al 
  0.0099859  0.2634276  0.7406515

 Al 
  0.2362494  0.9880786  0.7359376

 Al 
  0.2463331  0.2429137  0.5038315

 Al 
  0.0064155  0.4990854  0.4972563

 Al 
  0.9779046  0.7599030  0.7628508

 Al 
  0.2226882  0.4965559  0.7467464

 Al 
  0.2421341  0.7560368  0.4979778

 Al 
  0.4998824  0.5016546  0.0050740

 Al 
  0.5013663  0.7581716  0.2468752

 Al 
  0.7445362  0.4877692  0.2574551

 Al 
  0.7543203  0.7456388  0.0326605

 Al 
  0.5086295  0.0121813  0.5106517

 Al 
  0.4878533  0.2332706  0.7556519

 Al 
  0.7452601  0.0086691  0.7465583

 Al 
  0.7406873  0.2597532  0.5115972

 Al 
  0.4817596  0.4994295  0.4853336

 Al 
  0.5164361  0.7421316  0.7409138

 Al 
  0.7430857  0.4912084  0.7633867

 Al 
  0.7480694  0.7522177  0.4925437

