32 
charge = 0 
 Al 
  0.0195263  0.9992525  0.9967415

 Al 
  0.0034082  0.2543735  0.2601356

 Al 
  0.2587261  0.9841951  0.2440325

 Al 
  0.2442453  0.2511027  0.9965398

 Al 
  0.5111764  0.9999455  0.9925561

 Al 
  0.4825949  0.2519739  0.2553599

 Al 
  0.7619932  0.0037585  0.2456289

 Al 
  0.7696649  0.2426464  0.0037053

 Al 
  0.9895760  0.5226499  0.0007079

 Al 
  0.0161551  0.7529046  0.2533761

 Al 
  0.2437664  0.5037003  0.2400339

 Al 
  0.2765717  0.7437986  0.9863732

 Al 
  0.9951042  0.0033488  0.4855552

 Al 
  0.0074254  0.2608794  0.7441463

 Al 
  0.2352161  0.9802708  0.7342285

 Al 
  0.2499245  0.2435486  0.5046013

 Al 
  0.0070553  0.4938617  0.4968009

 Al 
  0.9776905  0.7593337  0.7610044

 Al 
  0.2267883  0.4980768  0.7428518

 Al 
  0.2438035  0.7544218  0.4939718

 Al 
  0.5034466  0.5005953  0.0080615

 Al 
  0.5025964  0.7574687  0.2453802

 Al 
  0.7443307  0.4926712  0.2594896

 Al 
  0.7569118  0.7414856  0.0341629

 Al 
  0.5076939  0.0069625  0.5096555

 Al 
  0.4848312  0.2339723  0.7595144

 Al 
  0.7455869  0.0111517  0.7429855

 Al 
  0.7423160  0.2620378  0.5107086

 Al 
  0.4845094  0.5028872  0.4891936

 Al 
  0.5143570  0.7438926  0.7403260

 Al 
  0.7421687  0.4927751  0.7685931

 Al 
  0.7508378  0.7500557  0.4935808

