32 
charge = 0 
 Al 
  0.0218925  0.0002339  0.9983503

 Al 
  0.0037350  0.2541545  0.2604735

 Al 
  0.2578882  0.9838387  0.2443159

 Al 
  0.2441637  0.2495273  0.9969420

 Al 
  0.5081506  0.9990557  0.9929471

 Al 
  0.4848683  0.2518155  0.2549119

 Al 
  0.7614301  0.0027759  0.2454965

 Al 
  0.7706289  0.2408656  0.0039466

 Al 
  0.9927615  0.5225868  0.0007277

 Al 
  0.0156378  0.7527684  0.2531459

 Al 
  0.2439124  0.5043451  0.2394226

 Al 
  0.2777697  0.7420412  0.9876491

 Al 
  0.9961314  0.0044156  0.4845812

 Al 
  0.0087186  0.2621949  0.7425264

 Al 
  0.2356034  0.9836654  0.7349203

 Al 
  0.2483132  0.2432627  0.5043426

 Al 
  0.0068697  0.4960745  0.4970224

 Al 
  0.9777164  0.7596369  0.7619375

 Al 
  0.2247376  0.4972712  0.7445287

 Al 
  0.2430078  0.7552064  0.4956920

 Al 
  0.5018353  0.5011769  0.0067670

 Al 
  0.5020618  0.7578276  0.2459247

 Al 
  0.7443877  0.4905029  0.2586035

 Al 
  0.7558079  0.7432268  0.0336778

 Al 
  0.5081692  0.0093993  0.5102544

 Al 
  0.4861554  0.2334625  0.7578103

 Al 
  0.7453146  0.0101109  0.7445126

 Al 
  0.7415734  0.2610428  0.5111579

 Al 
  0.4832508  0.5013316  0.4873670

 Al 
  0.5153544  0.7430956  0.7405661

 Al 
  0.7425709  0.4920536  0.7663779

 Al 
  0.7495842  0.7510358  0.4931018

