32 
charge = 0 
 Al 
  0.0268353  0.0022994  0.0024925

 Al 
  0.0045443  0.2536100  0.2605886

 Al 
  0.2557955  0.9840948  0.2451030

 Al 
  0.2441723  0.2460299  0.9982303

 Al 
  0.5007376  0.9968888  0.9943171

 Al 
  0.4910054  0.2509715  0.2533290

 Al 
  0.7595899  0.0007463  0.2454953

 Al 
  0.7725038  0.2370353  0.0045629

 Al 
  0.0010099  0.5211524  0.0010123

 Al 
  0.0137468  0.7524974  0.2522920

 Al 
  0.2444285  0.5056148  0.2381887

 Al 
  0.2792758  0.7382988  0.9906601

 Al 
  0.9986263  0.0068450  0.4830887

 Al 
  0.0106851  0.2640265  0.7391404

 Al 
  0.2370118  0.9922491  0.7370563

 Al 
  0.2446055  0.2426377  0.5031174

 Al 
  0.0057510  0.5020940  0.4974024

 Al 
  0.9782857  0.7600564  0.7634127

 Al 
  0.2214779  0.4962774  0.7488800

 Al 
  0.2414769  0.7566408  0.5002277

 Al 
  0.4982427  0.5017524  0.0034330

 Al 
  0.5007165  0.7583622  0.2480719

 Al 
  0.7447515  0.4852928  0.2563153

 Al 
  0.7528810  0.7480112  0.0312596

 Al 
  0.5088857  0.0143619  0.5105972

 Al 
  0.4894374  0.2336258  0.7537164

 Al 
  0.7455336  0.0071927  0.7485818

 Al 
  0.7399671  0.2585231  0.5118410

 Al 
  0.4804973  0.4977687  0.4837916

 Al 
  0.5172083  0.7413024  0.7412665

 Al 
  0.7435721  0.4904968  0.7604487

 Al 
  0.7467427  0.7532437  0.4920784

