32 
charge = 0 
 Al 
  0.0292065  0.0032201  0.0053859

 Al 
  0.0051074  0.2532993  0.2599946

 Al 
  0.2544008  0.9853126  0.2459037

 Al 
  0.2445176  0.2441797  0.9993577

 Al 
  0.4958381  0.9955869  0.9955213

 Al 
  0.4956091  0.2498589  0.2516695

 Al 
  0.7579006  0.9998218  0.2458505

 Al 
  0.7732550  0.2350069  0.0049230

 Al 
  0.0065578  0.5190572  0.0014455

 Al 
  0.0119177  0.7524231  0.2514826

 Al 
  0.2449087  0.5060628  0.2377506

 Al 
  0.2787560  0.7365576  0.9924261

 Al 
  0.0001658  0.0082100  0.4829909

 Al 
  0.0106727  0.2637704  0.7374981

 Al 
  0.2383644  0.9981115  0.7389684

 Al 
  0.2424917  0.2424323  0.5016125

 Al 
  0.0043847  0.5066333  0.4974543

 Al 
  0.9792708  0.7601493  0.7637184

 Al 
  0.2211982  0.4966375  0.7519058

 Al 
  0.2408519  0.7572224  0.5036186

 Al 
  0.4964247  0.5011299  0.0009900

 Al 
  0.4998267  0.7583783  0.2503539

 Al 
  0.7451908  0.4820591  0.2545072

 Al 
  0.7508329  0.7514083  0.0284516

 Al 
  0.5088931  0.0165462  0.5097124

 Al 
  0.4916489  0.2351592  0.7512598

 Al 
  0.7464866  0.0048871  0.7516398

 Al 
  0.7392555  0.2567323  0.5118336

 Al 
  0.4789602  0.4956784  0.4823338

 Al 
  0.5177875  0.7402938  0.7417900

 Al 
  0.7442812  0.4896416  0.7561296

 Al 
  0.7450386  0.7545344  0.4915190

