32 
charge = 0 
 Al 
  0.0277462  0.0026682  0.0034726

 Al 
  0.0047337  0.2534936  0.2604525

 Al 
  0.2553153  0.9844080  0.2453381

 Al 
  0.2442490  0.2453406  0.9985892

 Al 
  0.4990557  0.9964234  0.9947045

 Al 
  0.4925288  0.2506522  0.2528291

 Al 
  0.7590602  0.0003849  0.2455794

 Al 
  0.7728120  0.2362878  0.0046953

 Al 
  0.0029219  0.5205485  0.0011348

 Al 
  0.0131776  0.7524603  0.2520383

 Al 
  0.2445795  0.5058141  0.2379919

 Al 
  0.2792597  0.7376157  0.9912937

 Al 
  0.9991708  0.0073425  0.4829625

 Al 
  0.0108212  0.2640909  0.7385142

 Al 
  0.2374326  0.9942453  0.7376578

 Al 
  0.2438394  0.2425363  0.5026781

 Al 
  0.0053450  0.5035964  0.4974420

 Al 
  0.9785543  0.7601022  0.7635798

 Al 
  0.2211821  0.4962960  0.7499097

 Al 
  0.2412232  0.7568722  0.5013477

 Al 
  0.4975521  0.5016497  0.0026236

 Al 
  0.5004109  0.7584030  0.2487649

 Al 
  0.7448814  0.4841542  0.2557349

 Al 
  0.7521855  0.7491646  0.0304205

 Al 
  0.5089389  0.0152307  0.5104079

 Al 
  0.4901911  0.2340033  0.7528402

 Al 
  0.7457811  0.0064415  0.7495904

 Al 
  0.7396787  0.2579241  0.5118880

 Al 
  0.4799428  0.4970249  0.4831976

 Al 
  0.5174781  0.7409373  0.7414410

 Al 
  0.7438085  0.4901861  0.7590045

 Al 
  0.7461413  0.7537028  0.4918754

