32 
charge = 0 
 Al 
  0.0297609  0.0034021  0.0063301

 Al 
  0.0052931  0.2532226  0.2596716

 Al 
  0.2539652  0.9859042  0.2462527

 Al 
  0.2447181  0.2437070  0.9997711

 Al 
  0.4942763  0.9952119  0.9959519

 Al 
  0.4971870  0.2493750  0.2509938

 Al 
  0.7572608  0.9996176  0.2460410

 Al 
  0.7733924  0.2344599  0.0050158

 Al 
  0.0082941  0.5181625  0.0016385

 Al 
  0.0112173  0.7524219  0.2511782

 Al 
  0.2450894  0.5061098  0.2377147

 Al 
  0.2782635  0.7361814  0.9929360

 Al 
  0.0006188  0.0085837  0.4831456

 Al 
  0.0103893  0.2633892  0.7370972

 Al 
  0.2388817  0.0000136  0.7396886

 Al 
  0.2419026  0.2424385  0.5009752

 Al 
  0.0038278  0.5081877  0.4974283

 Al 
  0.9797324  0.7601517  0.7636998

 Al 
  0.2215101  0.4969531  0.7528749

 Al 
  0.2407282  0.7573511  0.5047918

 Al 
  0.4959866  0.5007042  0.0001497

 Al 
  0.4995433  0.7583115  0.2512611

 Al 
  0.7453740  0.4810938  0.2538451

 Al 
  0.7501671  0.7525061  0.0273056

 Al 
  0.5087904  0.0170029  0.5092050

 Al 
  0.4923667  0.2359450  0.7505482

 Al 
  0.7469395  0.0040741  0.7526966

 Al 
  0.7391280  0.2561259  0.5117284

 Al 
  0.4785209  0.4950609  0.4820566

 Al 
  0.5178271  0.7400141  0.7419657

 Al 
  0.7445225  0.4894028  0.7546792

 Al 
  0.7445263  0.7549131  0.4913606

