32 
charge = 0 
 Al 
  0.0288847  0.0031050  0.0049119

 Al 
  0.0050146  0.2533427  0.2601319

 Al 
  0.2546248  0.9850515  0.2457477

 Al 
  0.2444347  0.2444433  0.9991585

 Al 
  0.4966276  0.9957849  0.9953121

 Al 
  0.4948319  0.2500780  0.2519813

 Al 
  0.7582050  0.9999431  0.2457700

 Al 
  0.7731647  0.2353027  0.0048710

 Al 
  0.0056705  0.5194669  0.0013588

 Al 
  0.0122494  0.7524281  0.2516274

 Al 
  0.2448220  0.5060195  0.2377914

 Al 
  0.2789416  0.7367841  0.9921576

 Al 
  0.9999282  0.0080083  0.4829489

 Al 
  0.0107631  0.2639053  0.7377246

 Al 
  0.2381194  0.9971561  0.7386256

 Al 
  0.2428060  0.2424447  0.5019046

 Al 
  0.0046433  0.5058673  0.4974593

 Al 
  0.9790666  0.7601418  0.7637072

 Al 
  0.2211190  0.4965150  0.7514133

 Al 
  0.2409287  0.7571469  0.5030432

 Al 
  0.4966747  0.5013007  0.0014022

 Al 
  0.4999703  0.7583969  0.2499295

 Al 
  0.7451067  0.4825615  0.2548253

 Al 
  0.7511683  0.7508539  0.0289825

 Al 
  0.5089241  0.0162678  0.5099253

 Al 
  0.4912888  0.2348188  0.7516348

 Al 
  0.7462848  0.0052832  0.7511212

 Al 
  0.7393421  0.2570318  0.5118670

 Al 
  0.4791916  0.4959990  0.4825108

 Al 
  0.5177392  0.7404448  0.7417021

 Al 
  0.7441624  0.4897691  0.7568499

 Al 
  0.7453035  0.7543364  0.4916031

