32 
charge = 0 
 Al 
  0.0263329  0.0020927  0.0019950

 Al 
  0.0044478  0.2536706  0.2606331

 Al 
  0.2560418  0.9839736  0.2449941

 Al 
  0.2441463  0.2464024  0.9980558

 Al 
  0.5016014  0.9971338  0.9941278

 Al 
  0.4902431  0.2511138  0.2535617

 Al 
  0.7598436  0.0009492  0.2454668

 Al 
  0.7723256  0.2374375  0.0044924

 Al 
  0.0000297  0.5214197  0.0009591

 Al 
  0.0140166  0.7525209  0.2524132

 Al 
  0.2443567  0.5054973  0.2383050

 Al 
  0.2792250  0.7386788  0.9903260

 Al 
  0.9983404  0.0065801  0.4831877

 Al 
  0.0105638  0.2639362  0.7394844

 Al 
  0.2368113  0.9912306  0.7367667

 Al 
  0.2450126  0.2426984  0.5033154

 Al 
  0.0059353  0.5013428  0.4973739

 Al 
  0.9781706  0.7600267  0.7633026

 Al 
  0.2217019  0.4963071  0.7483553

 Al 
  0.2416217  0.7565083  0.4996683

 Al 
  0.4986201  0.5017648  0.0038402

 Al 
  0.5008750  0.7583288  0.2477501

 Al 
  0.7446921  0.4858868  0.2566024

 Al 
  0.7532338  0.7474259  0.0316445

 Al 
  0.5088399  0.0138731  0.5106517

 Al 
  0.4890525  0.2334872  0.7541780

 Al 
  0.7454359  0.0075652  0.7480768

 Al 
  0.7401304  0.2588251  0.5117989

 Al 
  0.4807918  0.4981622  0.4841320

 Al 
  0.5170449  0.7414967  0.7411787

 Al 
  0.7434533  0.4906626  0.7611764

 Al 
  0.7470583  0.7530011  0.4921873

