32 
charge = 0 
 Al 
  0.0294985  0.0033191  0.0058586

 Al 
  0.0052002  0.2532597  0.2598411

 Al 
  0.2541817  0.9855960  0.2460720

 Al 
  0.2446117  0.2439347  0.9995619

 Al 
  0.4950547  0.9953963  0.9957341

 Al 
  0.4963937  0.2496250  0.2513403

 Al 
  0.7575863  0.9997129  0.2459420

 Al 
  0.7733305  0.2347272  0.0049713

 Al 
  0.0074328  0.5186228  0.0015383

 Al 
  0.0115737  0.7524207  0.2513329

 Al 
  0.2449965  0.5060925  0.2377246

 Al 
  0.2785308  0.7363571  0.9926848

 Al 
  0.0003960  0.0084018  0.4830565

 Al 
  0.0105490  0.2635983  0.7372890

 Al 
  0.2386181  0.9990632  0.7393223

 Al 
  0.2421897  0.2424298  0.5013032

 Al 
  0.0041124  0.5074068  0.4974432

 Al 
  0.9794924  0.7601517  0.7637159

 Al 
  0.2213282  0.4967836  0.7523922

 Al 
  0.2407851  0.7572905  0.5042015

 Al 
  0.4961957  0.5009319  0.0005730

 Al 
  0.4996844  0.7583486  0.2507970

 Al 
  0.7452799  0.4815702  0.2541817

 Al 
  0.7505000  0.7519591  0.0278934

 Al 
  0.5088486  0.0167912  0.5094723

 Al 
  0.4920078  0.2355341  0.7508985

 Al 
  0.7467044  0.0044849  0.7521645

 Al 
  0.7391849  0.2564304  0.5117878

 Al 
  0.4787362  0.4953653  0.4821828

 Al 
  0.5178172  0.7401502  0.7418779

 Al 
  0.7444013  0.4895203  0.7554069

 Al 
  0.7447800  0.7547263  0.4914385

