32 
charge = 0 
 Al 
  0.0307670  0.0035283  0.0096295

 Al 
  0.0059391  0.2530828  0.2580120

 Al 
  0.2525432  0.9887493  0.2479815

 Al 
  0.2458430  0.2426291  0.0014319

 Al 
  0.4889152  0.9941067  0.9975868

 Al 
  0.5030642  0.2471388  0.2480013

 Al 
  0.7546310  0.9992859  0.2470175

 Al 
  0.7734357  0.2329674  0.0051891

 Al 
  0.0139832  0.5141280  0.0025494

 Al 
  0.0083288  0.7524850  0.2499443

 Al 
  0.2458542  0.5058524  0.2381194

 Al 
  0.2751856  0.7357136  0.9945052

 Al 
  0.0019640  0.0095651  0.4844822

 Al 
  0.0082855  0.2609339  0.7362123

 Al 
  0.2410400  0.0067051  0.7426514

 Al 
  0.2402851  0.2428729  0.4980917

 Al 
  0.0014380  0.5139560  0.4971969

 Al 
  0.9820318  0.7600478  0.7632060

 Al 
  0.2242476  0.4987600  0.7560876

 Al 
  0.2406007  0.7576246  0.5092446

 Al 
  0.4951141  0.4982550  0.9969704

 Al 
  0.4985372  0.7577731  0.2550988

 Al 
  0.7462081  0.4781310  0.2511423

 Al 
  0.7478058  0.7562980  0.0223046

 Al 
  0.5079513  0.0175536  0.5065838

 Al 
  0.4949334  0.2398817  0.7484134

 Al 
  0.7490186  0.0009678  0.7567039

 Al 
  0.7391825  0.2538414  0.5108844

 Al 
  0.4772090  0.4930944  0.4818771

 Al 
  0.5173085  0.7392369  0.7426118

 Al 
  0.7454606  0.4887431  0.7493589

 Al 
  0.7428877  0.7560888  0.4909076

