32 
charge = 0 
 Al 
  0.0306346  0.0035778  0.0086865

 Al 
  0.0057571  0.2531001  0.2585726

 Al 
  0.2529305  0.9878112  0.2473937

 Al 
  0.2454482  0.2428419  0.0009220

 Al 
  0.4904361  0.9943901  0.9970992

 Al 
  0.5013217  0.2478689  0.2489654

 Al 
  0.7554490  0.9993193  0.2466883

 Al 
  0.7734951  0.2333300  0.0051681

 Al 
  0.0124251  0.5154324  0.0022487

 Al 
  0.0092285  0.7524578  0.2503255

 Al 
  0.2456116  0.5059960  0.2379103

 Al 
  0.2762871  0.7357062  0.9940845

 Al 
  0.0016200  0.0093399  0.4839686

 Al 
  0.0090627  0.2618101  0.7363843

 Al 
  0.2403631  0.0047770  0.7417306

 Al 
  0.2406762  0.2426736  0.4990223

 Al 
  0.0021917  0.5122519  0.4972836

 Al 
  0.9812546  0.7600985  0.7634127

 Al 
  0.2231981  0.4981387  0.7552077

 Al 
  0.2405883  0.7575702  0.5079093

 Al 
  0.4952564  0.4991114  0.9979221

 Al 
  0.4988317  0.7579786  0.2538946

 Al 
  0.7459346  0.4789070  0.2519826

 Al 
  0.7484889  0.7552213  0.0239010

 Al 
  0.5082731  0.0175647  0.5074662

 Al 
  0.4941847  0.2385637  0.7489691

 Al 
  0.7483503  0.0018984  0.7555047

 Al 
  0.7390797  0.2545258  0.5112074

 Al 
  0.4775481  0.4936315  0.4818016

 Al 
  0.5175660  0.7394250  0.7424212

 Al 
  0.7451735  0.4889015  0.7509257

 Al 
  0.7433333  0.7557757  0.4910202

