32 
charge = 0 
 Al 
  0.0302002  0.0035221  0.0072719

 Al 
  0.0054787  0.2531607  0.2592830

 Al 
  0.2535419  0.9865922  0.2466586

 Al 
  0.2449681  0.2433060  0.0002104

 Al 
  0.4927330  0.9948641  0.9963975

 Al 
  0.4988045  0.2488256  0.2502450

 Al 
  0.7565752  0.9994617  0.2462700

 Al 
  0.7734766  0.2339686  0.0050913

 Al 
  0.0099834  0.5171588  0.0018601

 Al 
  0.0104648  0.7524293  0.2508539

 Al 
  0.2452849  0.5061049  0.2377407

 Al 
  0.2776038  0.7359104  0.9934137

 Al 
  0.0010420  0.0089166  0.4833981

 Al 
  0.0099649  0.2628645  0.7367643

 Al 
  0.2394399  0.0019120  0.7404621

 Al 
  0.2413705  0.2424917  0.5002574

 Al 
  0.0032152  0.5097792  0.4973838

 Al 
  0.9802733  0.7601418  0.7636256

 Al 
  0.2220261  0.4973615  0.7538253

 Al 
  0.2406428  0.7574551  0.5060022

 Al 
  0.4956314  0.5001596  0.9992835

 Al 
  0.4992599  0.7582075  0.2522499

 Al 
  0.7455782  0.4801792  0.2531385

 Al 
  0.7495000  0.7535964  0.0260420

 Al 
  0.5086308  0.0173271  0.5085912

 Al 
  0.4930870  0.2368781  0.7498837

 Al 
  0.7474568  0.0032313  0.7537882

 Al 
  0.7390587  0.2555034  0.5115663

 Al 
  0.4781112  0.4944718  0.4818796

 Al 
  0.5177850  0.7397592  0.7421440

 Al 
  0.7447738  0.4891862  0.7532028

 Al 
  0.7440362  0.7552720  0.4912145

