32 
charge = 0 
 Al 
  0.0305208  0.0035753  0.0082149

 Al 
  0.0056643  0.2531162  0.2588263

 Al 
  0.2531310  0.9873806  0.2471301

 Al 
  0.2452737  0.2429768  0.0006769

 Al 
  0.4911997  0.9945423  0.9968615

 Al 
  0.5004703  0.2482068  0.2494134

 Al 
  0.7558376  0.9993552  0.2465398

 Al 
  0.7735038  0.2335305  0.0051483

 Al 
  0.0116232  0.5160388  0.0021113

 Al 
  0.0096555  0.7524467  0.2505074

 Al 
  0.2454977  0.5060455  0.2378348

 Al 
  0.2767710  0.7357458  0.9938666

 Al 
  0.0014356  0.0092099  0.4837520

 Al 
  0.0093993  0.2621962  0.7364945

 Al 
  0.2400426  0.0038179  0.7412925

 Al 
  0.2408928  0.2425981  0.4994567

 Al 
  0.0025481  0.5114153  0.4973219

 Al 
  0.9809032  0.7601171  0.7634969

 Al 
  0.2227538  0.4978590  0.7547535

 Al 
  0.2405970  0.7575368  0.5072608

 Al 
  0.4953604  0.4994926  0.9983850

 Al 
  0.4989753  0.7580652  0.2533241

 Al 
  0.7458096  0.4793179  0.2523823

 Al 
  0.7488280  0.7546805  0.0246485

 Al 
  0.5084092  0.0175189  0.5078684

 Al 
  0.4938159  0.2379622  0.7492637

 Al 
  0.7480372  0.0023514  0.7549205

 Al 
  0.7390550  0.2548587  0.5113423

 Al 
  0.4777288  0.4939062  0.4818029

 Al 
  0.5176613  0.7395302  0.7423271

 Al 
  0.7450361  0.4889906  0.7516942

 Al 
  0.7435634  0.7556123  0.4910821

