32 
charge = 0 
 Al 
  0.0291297  0.0021026  0.0142938

 Al 
  0.0067163  0.2533290  0.2539949

 Al 
  0.2509306  0.9951265  0.2525964

 Al 
  0.2490000  0.2429620  0.0045431

 Al 
  0.4813796  0.9930536  0.0003082

 Al 
  0.5126949  0.2421551  0.2414905

 Al 
  0.7495879  0.9998478  0.2493466

 Al 
  0.7720125  0.2319613  0.0046879

 Al 
  0.0206054  0.5052238  0.0046025

 Al 
  0.0027152  0.7526385  0.2475979

 Al 
  0.2475682  0.5042003  0.2407393

 Al 
  0.2665499  0.7378694  0.9965905

 Al 
  0.0030456  0.0098102  0.4890723

 Al 
  0.0021831  0.2544428  0.7363930

 Al 
  0.2454284  0.0168865  0.7483639

 Al 
  0.2393817  0.2451995  0.4919954

 Al 
  0.9967019  0.5232885  0.4965794

 Al 
  0.9879499  0.7594005  0.7613237

 Al 
  0.2332174  0.5028724  0.7595800

 Al 
  0.2413631  0.7577781  0.5169781

 Al 
  0.4958863  0.4918370  0.9915388

 Al 
  0.4967638  0.7559254  0.2625006

 Al 
  0.7481833  0.4754554  0.2458257

 Al 
  0.7440473  0.7615811  0.0118447

 Al 
  0.5049602  0.0152431  0.5005594

 Al 
  0.4990570  0.2490978  0.7462106

 Al 
  0.7531632  0.9957589  0.7635389

 Al 
  0.7411081  0.2497092  0.5079167

 Al 
  0.4760581  0.4905747  0.4839934

 Al 
  0.5142827  0.7388298  0.7437045

 Al 
  0.7473689  0.4885142  0.7406267

 Al 
  0.7409596  0.7573251  0.4906638

