32 
charge = 0 
 Al 
  0.0305133  0.0031050  0.0119264

 Al 
  0.0063623  0.2531261  0.2563289

 Al 
  0.2516757  0.9914819  0.2498181

 Al 
  0.2471004  0.2424657  0.0028192

 Al 
  0.4852198  0.9935176  0.9988503

 Al 
  0.5075578  0.2450126  0.2452230

 Al 
  0.7523848  0.9994047  0.2480001

 Al 
  0.7730125  0.2322930  0.0051074

 Al 
  0.0175140  0.5103534  0.0034280

 Al 
  0.0058524  0.7525655  0.2489060

 Al 
  0.2465621  0.5052535  0.2390142

 Al 
  0.2716895  0.7362643  0.9954940

 Al 
  0.0026496  0.0099005  0.4862383

 Al 
  0.0057943  0.2582236  0.7360663

 Al 
  0.2429372  0.0115304  0.7451846

 Al 
  0.2395970  0.2436798  0.4954334

 Al 
  0.9993453  0.5183333  0.4969296

 Al 
  0.9844228  0.7598324  0.7624783

 Al 
  0.2277709  0.5005755  0.7580404

 Al 
  0.2408049  0.7577075  0.5127692

 Al 
  0.4951463  0.4955980  0.9944681

 Al 
  0.4977637  0.7570739  0.2584129

 Al 
  0.7470224  0.4765185  0.2488157

 Al 
  0.7460658  0.7589080  0.0177739

 Al 
  0.5068301  0.0169360  0.5039874

 Al 
  0.4968455  0.2437911  0.7472254

 Al 
  0.7508762  0.9985384  0.7598535

 Al 
  0.7397827  0.2520098  0.5097693

 Al 
  0.4765074  0.4918383  0.4825120

 Al 
  0.5162529  0.7389077  0.7431093

 Al 
  0.7462638  0.4884845  0.7453171

 Al 
  0.7418766  0.7567682  0.4907034

