32 
charge = 0 
 Al 
  0.0288043  0.0018997  0.0146193

 Al 
  0.0067509  0.2533748  0.2536025

 Al 
  0.2508465  0.9957242  0.2530927

 Al 
  0.2493367  0.2431068  0.0048178

 Al 
  0.4808450  0.9930003  0.0005284

 Al 
  0.5134610  0.2416836  0.2408705

 Al 
  0.7491486  0.9999394  0.2495706

 Al 
  0.7718021  0.2319576  0.0045802

 Al 
  0.0209606  0.5043599  0.0047931

 Al 
  0.0022103  0.7526447  0.2473863

 Al 
  0.2477452  0.5040085  0.2410784

 Al 
  0.2656601  0.7382172  0.9967662

 Al 
  0.0030605  0.0097421  0.4895909

 Al 
  0.0015705  0.2538142  0.7364920

 Al 
  0.2458418  0.0176811  0.7488689

 Al 
  0.2394102  0.2454977  0.4914460

 Al 
  0.9962799  0.5240211  0.4965249

 Al 
  0.9885723  0.7593127  0.7611183

 Al 
  0.2341815  0.5032251  0.7597260

 Al 
  0.2414856  0.7577954  0.5176303

 Al 
  0.4960745  0.4912059  0.9910970

 Al 
  0.4965918  0.7557114  0.2631367

 Al 
  0.7483837  0.4753898  0.2453369

 Al 
  0.7437342  0.7619437  0.0108794

 Al 
  0.5046099  0.0148928  0.5000087

 Al 
  0.4993961  0.2499715  0.7460868

 Al 
  0.7535159  0.9953492  0.7640958

 Al 
  0.7413791  0.2493317  0.5075714

 Al 
  0.4760346  0.4903990  0.4842929

 Al 
  0.5138978  0.7388533  0.7437998

 Al 
  0.7475620  0.4885600  0.7399114

 Al 
  0.7408482  0.7573858  0.4906824

