32 
charge = 0 
 Al 
  0.0250668  0.9999220  0.0164843

 Al 
  0.0066890  0.2538204  0.2504369

 Al 
  0.2505705  0.0004010  0.2575813

 Al 
  0.2523254  0.2449396  0.0069229

 Al 
  0.4776657  0.9927417  0.0020890

 Al 
  0.5186439  0.2380154  0.2358844

 Al 
  0.7459457  0.0007029  0.2513712

 Al 
  0.7695671  0.2324823  0.0031063

 Al 
  0.0220472  0.4971487  0.0061569

 Al 
  0.9982340  0.7525803  0.2456772

 Al 
  0.2493750  0.5023761  0.2444285

 Al 
  0.2580763  0.7418940  0.9983281

 Al 
  0.0026001  0.0085949  0.4943815

 Al 
  0.9965794  0.2487983  0.7377778

 Al 
  0.2492488  0.0232278  0.7526905

 Al 
  0.2403099  0.2484568  0.4873806

 Al 
  0.9931018  0.5288847  0.4961376

 Al 
  0.9940894  0.7584129  0.7593696

 Al 
  0.2425796  0.5056024  0.7596555

 Al 
  0.2428419  0.7581135  0.5223900

 Al 
  0.4983219  0.4862160  0.9881244

 Al 
  0.4949916  0.7536199  0.2676501

 Al 
  0.7501015  0.4762239  0.2414237

 Al 
  0.7413569  0.7638669  0.0033464

 Al 
  0.5012376  0.0114277  0.4959383

 Al 
  0.5019145  0.2567645  0.7453938

 Al 
  0.7560071  0.9926885  0.7678395

 Al 
  0.7441500  0.2461957  0.5042510

 Al 
  0.4765680  0.4893409  0.4872494

 Al 
  0.5100762  0.7394931  0.7445820

 Al 
  0.7493317  0.4894993  0.7347260

 Al 
  0.7403829  0.7575491  0.4912257

