32 
charge = 0 
 Al 
  0.0240842  0.9994790  0.0166576

 Al 
  0.0065838  0.2539082  0.2498404

 Al 
  0.2506039  0.0012487  0.2585565

 Al 
  0.2529627  0.2454383  0.0073004

 Al 
  0.4773402  0.9927132  0.0023378

 Al 
  0.5193778  0.2373719  0.2349451

 Al 
  0.7454359  0.0008205  0.2517091

 Al 
  0.7689953  0.2327150  0.0026471

 Al 
  0.0218294  0.4956982  0.0063487

 Al 
  0.9974853  0.7525382  0.2453431

 Al 
  0.2497438  0.5020618  0.2452143

 Al 
  0.2565281  0.7427974  0.9986907

 Al 
  0.0023699  0.0082273  0.4954482

 Al 
  0.9956314  0.2478652  0.7381454

 Al 
  0.2499282  0.0241015  0.7533550

 Al 
  0.2406304  0.2491646  0.4867185

 Al 
  0.9925585  0.5295456  0.4960757

 Al 
  0.9952725  0.7581927  0.7590255

 Al 
  0.2443233  0.5059205  0.7593485

 Al 
  0.2431996  0.7582397  0.5231746

 Al 
  0.4989382  0.4853213  0.9877234

 Al 
  0.4946104  0.7531199  0.2683370

 Al 
  0.7504480  0.4767313  0.2406725

 Al 
  0.7409262  0.7639671  0.0019851

 Al 
  0.5004529  0.0106393  0.4952799

 Al 
  0.5023625  0.2579625  0.7453084

 Al 
  0.7563883  0.9923519  0.7683444

 Al 
  0.7448208  0.2455559  0.5034788

 Al 
  0.4768749  0.4892196  0.4879325

 Al 
  0.5091654  0.7397369  0.7447503

 Al 
  0.7497327  0.4898347  0.7338634

 Al 
  0.7403953  0.7575108  0.4914423

