32 
charge = 0 
 Al 
  0.0245829  0.9997005  0.0165809

 Al 
  0.0066408  0.2538649  0.2501349

 Al 
  0.2505841  0.0008329  0.2580701

 Al 
  0.2526447  0.2451859  0.0071147

 Al 
  0.4774875  0.9927268  0.0022177

 Al 
  0.5190288  0.2376863  0.2354079

 Al 
  0.7456821  0.0007648  0.2515432

 Al 
  0.7692849  0.2325937  0.0028835

 Al 
  0.0219568  0.4964173  0.0062584

 Al 
  0.9978541  0.7525605  0.2455089

 Al 
  0.2495594  0.5022165  0.2448196

 Al 
  0.2572979  0.7423432  0.9985075

 Al 
  0.0024900  0.0084167  0.4949136

 Al 
  0.9960992  0.2483243  0.7379573

 Al 
  0.2495916  0.0236783  0.7530308

 Al 
  0.2404658  0.2488082  0.4870390

 Al 
  0.9928234  0.5292325  0.4961054

 Al 
  0.9946822  0.7583040  0.7591951

 Al 
  0.2434570  0.5057708  0.7595131

 Al 
  0.2430177  0.7581729  0.5227934

 Al 
  0.4986251  0.4857581  0.9879127

 Al 
  0.4948022  0.7533711  0.2680078

 Al 
  0.7502772  0.4764640  0.2410438

 Al 
  0.7411378  0.7639312  0.0026533

 Al 
  0.5008465  0.0110329  0.4955980

 Al 
  0.5021422  0.2573783  0.7453492

 Al 
  0.7562051  0.9925090  0.7681068

 Al 
  0.7444829  0.2458740  0.5038661

 Al 
  0.4767115  0.4892753  0.4875897

 Al 
  0.5096233  0.7396094  0.7446661

 Al 
  0.7495310  0.4896614  0.7342830

 Al 
  0.7403841  0.7575330  0.4913284

