32 
charge = 0 
 Al 
  0.0188196  0.9975595  0.0165153

 Al 
  0.0056581  0.2541211  0.2475385

 Al 
  0.2510061  0.0044193  0.2629870

 Al 
  0.2558326  0.2480706  0.0087421

 Al 
  0.4773786  0.9925808  0.0031360

 Al 
  0.5210905  0.2352445  0.2313128

 Al 
  0.7439533  0.0009344  0.2529850

 Al 
  0.7659076  0.2342582  0.9997772

 Al 
  0.0190944  0.4894275  0.0065578

 Al 
  0.9943802  0.7522103  0.2439545

 Al 
  0.2515185  0.5008787  0.2490013

 Al 
  0.2497624  0.7472662  0.0005940

 Al 
  0.0007821  0.0060195  0.5004826

 Al 
  0.9919026  0.2442416  0.7402530

 Al 
  0.2528848  0.0269269  0.7557411

 Al 
  0.2425251  0.2527412  0.4847458

 Al 
  0.9907517  0.5308896  0.4958542

 Al 
  0.0006571  0.7571011  0.7576803

 Al 
  0.2519479  0.5064613  0.7569204

 Al 
  0.2451277  0.7591580  0.5257066

 Al 
  0.5023724  0.4822014  0.9870254

 Al 
  0.4926217  0.7505643  0.2701475

 Al 
  0.7518638  0.4804935  0.2375662

 Al 
  0.7392097  0.7629239  0.9968974

 Al 
  0.4966375  0.0070120  0.4933555

 Al 
  0.5041817  0.2620811  0.7449842

 Al 
  0.7574316  0.9918494  0.7691810

 Al 
  0.7481387  0.2427182  0.4996621

 Al 
  0.4793401  0.4891057  0.4912084

 Al 
  0.5046607  0.7413915  0.7456450

 Al 
  0.7516917  0.4920400  0.7308735

 Al 
  0.7408656  0.7571110  0.4929632

