32 
charge = 0 
 Al 
  0.0207626  0.9981845  0.0167257

 Al 
  0.0060579  0.2540939  0.2482476

 Al 
  0.2508366  0.0034565  0.2614821

 Al 
  0.2548587  0.2471128  0.0082966

 Al 
  0.4770952  0.9926353  0.0029182

 Al 
  0.5207948  0.2358188  0.2324328

 Al 
  0.7443060  0.0009851  0.2525989

 Al 
  0.7670561  0.2336468  0.0009022

 Al 
  0.0203233  0.4915140  0.0066222

 Al 
  0.9953987  0.7523477  0.2444025

 Al 
  0.2508960  0.5012338  0.2476783

 Al 
  0.2520296  0.7456871  0.9998936

 Al 
  0.0014182  0.0068722  0.4987315

 Al 
  0.9930672  0.2453653  0.7394510

 Al 
  0.2518922  0.0261546  0.7550369

 Al 
  0.2418086  0.2514529  0.4852260

 Al 
  0.9912442  0.5307274  0.4959222

 Al 
  0.9988181  0.7574910  0.7580961

 Al 
  0.2494035  0.5064403  0.7579130

 Al 
  0.2444161  0.7587793  0.5250309

 Al 
  0.5010829  0.4830825  0.9870576

 Al 
  0.4933493  0.7514913  0.2697688

 Al 
  0.7514158  0.4789491  0.2385748

 Al 
  0.7397579  0.7635575  0.9984407

 Al 
  0.4979803  0.0082471  0.4938134

 Al 
  0.5035852  0.2609252  0.7450980

 Al 
  0.7572014  0.9918420  0.7691661

 Al 
  0.7469618  0.2436761  0.5010235

 Al 
  0.4782882  0.4890686  0.4900636

 Al 
  0.5062596  0.7407208  0.7453072

 Al 
  0.7509975  0.4911589  0.7317385

 Al 
  0.7406354  0.7572818  0.4923420

