32 
charge = 0 
 Al 
  0.0194928  0.9977662  0.0166031

 Al 
  0.0058029  0.2541186  0.2477699

 Al 
  0.2509467  0.0041062  0.2624808

 Al 
  0.2555047  0.2477414  0.0085961

 Al 
  0.4772524  0.9926006  0.0030679

 Al 
  0.5210225  0.2354215  0.2316779

 Al 
  0.7440560  0.0009628  0.2528612

 Al 
  0.7663074  0.2340416  0.0001745

 Al 
  0.0195399  0.4901267  0.0065962

 Al 
  0.9947218  0.7522598  0.2441030

 Al 
  0.2513069  0.5009925  0.2485521

 Al 
  0.2505247  0.7467266  0.0003502

 Al 
  0.0010074  0.0063190  0.4998874

 Al 
  0.9922838  0.2446092  0.7399733

 Al 
  0.2525506  0.0266856  0.7555146

 Al 
  0.2422764  0.2522982  0.4848869

 Al 
  0.9909039  0.5308673  0.4958764

 Al 
  0.0000359  0.7572348  0.7578152

 Al 
  0.2510952  0.5064725  0.7572707

 Al 
  0.2448814  0.7590231  0.5255000

 Al 
  0.5019232  0.4824774  0.9870130

 Al 
  0.4928729  0.7508836  0.2700460

 Al 
  0.7517165  0.4799428  0.2379016

 Al 
  0.7393916  0.7631701  0.9973986

 Al 
  0.4970954  0.0074279  0.4934879

 Al 
  0.5039812  0.2617197  0.7450238

 Al 
  0.7573684  0.9918284  0.7692070

 Al 
  0.7477365  0.2430412  0.5001287

 Al 
  0.4789590  0.4890847  0.4908185

 Al 
  0.5052077  0.7411514  0.7455262

 Al 
  0.7514541  0.4917281  0.7311494

 Al 
  0.7407814  0.7571717  0.4927417

