32 
charge = 0 
 Al 
  0.0230459  0.9990421  0.0167529

 Al 
  0.0064452  0.2539850  0.2492797

 Al 
  0.2506621  0.0020346  0.2595268

 Al 
  0.2535939  0.2459655  0.0076531

 Al 
  0.4771385  0.9926885  0.0025556

 Al 
  0.5199767  0.2367940  0.2340614

 Al 
  0.7449941  0.0009096  0.2520247

 Al 
  0.7683914  0.2329860  0.0021311

 Al 
  0.0214668  0.4942849  0.0064923

 Al 
  0.9967700  0.7524850  0.2450213

 Al 
  0.2501176  0.5017672  0.2460150

 Al 
  0.2550146  0.7437280  0.9990694

 Al 
  0.0020977  0.0078202  0.4965224

 Al 
  0.9947342  0.2469865  0.7385439

 Al 
  0.2505903  0.0248725  0.7539639

 Al 
  0.2409868  0.2498948  0.4861405

 Al 
  0.9920697  0.5300691  0.4960200

 Al 
  0.9964482  0.7579674  0.7587001

 Al 
  0.2460324  0.5061655  0.7589525

 Al 
  0.2435795  0.7583907  0.5238726

 Al 
  0.4995990  0.4845020  0.9874128

 Al 
  0.4942132  0.7526026  0.2689161

 Al 
  0.7507821  0.4773514  0.2399522

 Al 
  0.7405190  0.7639498  0.0007227

 Al 
  0.4996522  0.0098473  0.4947082

 Al 
  0.5027845  0.2590515  0.7452341

 Al 
  0.7567125  0.9921019  0.7687330

 Al 
  0.7455089  0.2449272  0.5026880

 Al 
  0.4772573  0.4891354  0.4886268

 Al 
  0.5082310  0.7400191  0.7449248

 Al 
  0.7501411  0.4902195  0.7330862

 Al 
  0.7404423  0.7574526  0.4916972

