32 
charge = 0 
 Al 
  0.0225026  0.9988256  0.0167727

 Al 
  0.0063623  0.2540184  0.2490112

 Al 
  0.2506992  0.0024083  0.2600131

 Al 
  0.2539095  0.2462403  0.0078214

 Al 
  0.4770828  0.9926761  0.0026558

 Al 
  0.5202280  0.2365267  0.2336382

 Al 
  0.7447985  0.0009430  0.2521744

 Al 
  0.7680746  0.2331357  0.0018489

 Al 
  0.0212329  0.4935882  0.0065455

 Al 
  0.9964222  0.7524553  0.2448629

 Al 
  0.2503082  0.5016274  0.2464222

 Al 
  0.2542659  0.7442045  0.9992661

 Al 
  0.0019442  0.0076011  0.4970645

 Al 
  0.9943035  0.2465658  0.7387555

 Al 
  0.2509170  0.0252240  0.7542486

 Al 
  0.2411787  0.2502710  0.4858831

 Al 
  0.9918457  0.5302807  0.4959940

 Al 
  0.9970360  0.7578523  0.7585429

 Al 
  0.2468776  0.5062608  0.7587236

 Al 
  0.2437788  0.7584761  0.5241906

 Al 
  0.4999480  0.4841208  0.9872915

 Al 
  0.4940065  0.7523365  0.2691674

 Al 
  0.7509443  0.4777053  0.2396020

 Al 
  0.7403235  0.7638978  0.0001238

 Al 
  0.4992451  0.0094500  0.4944532

 Al 
  0.5029887  0.2595565  0.7451995

 Al 
  0.7568536  0.9920078  0.7688840

 Al 
  0.7458616  0.2446154  0.5022845

 Al 
  0.4774801  0.4891070  0.4889783

 Al 
  0.5077521  0.7401762  0.7450151

 Al 
  0.7503502  0.4904324  0.7327249

 Al 
  0.7404782  0.7574167  0.4918408

