32 
charge = 0 
 Al 
  0.0219420  0.9986102  0.0167752

 Al 
  0.0062707  0.2540481  0.2487501

 Al 
  0.2507413  0.0027684  0.2605007

 Al 
  0.2542238  0.2465224  0.0079835

 Al 
  0.4770568  0.9926625  0.0027486

 Al 
  0.5204470  0.2362754  0.2332261

 Al 
  0.7446191  0.0009665  0.2523204

 Al 
  0.7677479  0.2332954  0.0015519

 Al 
  0.0209643  0.4928952  0.0065851

 Al 
  0.9960782  0.7524219  0.2447082

 Al 
  0.2505012  0.5014913  0.2468343

 Al 
  0.2535209  0.7446896  0.9994678

 Al 
  0.0017809  0.0073697  0.4976127

 Al 
  0.9938815  0.2461561  0.7389770

 Al 
  0.2512425  0.0255544  0.7545221

 Al 
  0.2413791  0.2506547  0.4856443

 Al 
  0.9916328  0.5304614  0.4959693

 Al 
  0.9976264  0.7577335  0.7583907

 Al 
  0.2477204  0.5063376  0.7584736

 Al 
  0.2439842  0.7585701  0.5244889

 Al 
  0.5003106  0.4837570  0.9871912

 Al 
  0.4937936  0.7520618  0.2693926

 Al 
  0.7511039  0.4780890  0.2392555

 Al 
  0.7401317  0.7638149  0.9995446

 Al 
  0.4988305  0.0090515  0.4942206

 Al 
  0.5031892  0.2600366  0.7451661

 Al 
  0.7569823  0.9919323  0.7690077

 Al 
  0.7462217  0.2443023  0.5018724

 Al 
  0.4777251  0.4890859  0.4893347

 Al 
  0.5072645  0.7403458  0.7451092

 Al 
  0.7505619  0.4906589  0.7323808

 Al 
  0.7405227  0.7573759  0.4919954

