32 
charge = 0 
 Al 
  0.0149856  0.9965682  0.0157913

 Al 
  0.0047349  0.2540122  0.2464729

 Al 
  0.2513217  0.0058797  0.2656180

 Al 
  0.2575528  0.2499010  0.0094364

 Al 
  0.4784986  0.9924385  0.0034132

 Al 
  0.5209631  0.2346047  0.2296310

 Al 
  0.7436835  0.0005817  0.2535394

 Al 
  0.7636058  0.2355416  0.9974271

 Al 
  0.0162937  0.4858225  0.0060628

 Al 
  0.9925981  0.7518984  0.2432367

 Al 
  0.2526496  0.5003700  0.2513997

 Al 
  0.2457948  0.7501609  0.0019851

 Al 
  0.9994369  0.0042597  0.5036867

 Al 
  0.9900896  0.2424967  0.7418841

 Al 
  0.2546470  0.0279083  0.7567583

 Al 
  0.2439458  0.2552015  0.4843696

 Al 
  0.9901837  0.5305022  0.4957304

 Al 
  0.0039268  0.7563574  0.7570504

 Al 
  0.2563425  0.5061185  0.7548611

 Al 
  0.2465125  0.7599847  0.5264578

 Al 
  0.5049614  0.4811086  0.9874536

 Al 
  0.4912207  0.7487711  0.2702552

 Al 
  0.7525692  0.4838609  0.2358782

 Al 
  0.7383001  0.7611145  0.9945609

 Al 
  0.4941748  0.0048438  0.4930300

 Al 
  0.5052436  0.2635129  0.7447218

 Al 
  0.7575405  0.9922355  0.7685473

 Al 
  0.7503292  0.2410462  0.4970868

 Al 
  0.4817905  0.4893520  0.4933122

 Al 
  0.5016905  0.7428692  0.7463591

 Al 
  0.7529974  0.4939322  0.7296557

 Al 
  0.7414138  0.7567472  0.4943270

