32 
charge = 0 
 Al 
  0.0112804  0.9958616  0.0148557

 Al 
  0.0037325  0.2537313  0.2457514

 Al 
  0.2515569  0.0069328  0.2678147

 Al 
  0.2590317  0.2515878  0.0099500

 Al 
  0.4800257  0.9922491  0.0035679

 Al 
  0.5202638  0.2344154  0.2284998

 Al 
  0.7437788  0.9999975  0.2538723

 Al 
  0.7613509  0.2368311  0.9950844

 Al 
  0.0133521  0.4828152  0.0052324

 Al 
  0.9910339  0.7515618  0.2427070

 Al 
  0.2536347  0.5000557  0.2534837

 Al 
  0.2424162  0.7527115  0.0033389

 Al 
  0.9980929  0.0024999  0.5065380

 Al 
  0.9887765  0.2412319  0.7434780

 Al 
  0.2561878  0.0284280  0.7574316

 Al 
  0.2452960  0.2574774  0.4845144

 Al 
  0.9900017  0.5295419  0.4956091

 Al 
  0.0067410  0.7556482  0.7566111

 Al 
  0.2600057  0.5054775  0.7528810

 Al 
  0.2478120  0.7608212  0.5266682

 Al 
  0.5074712  0.4806495  0.9882605

 Al 
  0.4899262  0.7470880  0.2698196

 Al 
  0.7530852  0.4873484  0.2345131

 Al 
  0.7375712  0.7589005  0.9928828

 Al 
  0.4920053  0.0030172  0.4932182

 Al 
  0.5062014  0.2641404  0.7444075

 Al 
  0.7573387  0.9928642  0.7673779

 Al 
  0.7523081  0.2396515  0.4947020

 Al 
  0.4845107  0.4897517  0.4951846

 Al 
  0.4990211  0.7444396  0.7471066

 Al 
  0.7541941  0.4958888  0.7288847

 Al 
  0.7419930  0.7563858  0.4957539

