32 
charge = 0 
 Al 
  0.0059774  0.9951983  0.0132964

 Al 
  0.0021756  0.2530778  0.2451067

 Al 
  0.2517103  0.0080528  0.2704643

 Al 
  0.2609153  0.2538699  0.0104797

 Al 
  0.4826679  0.9918927  0.0036842

 Al 
  0.5186662  0.2346431  0.2275321

 Al 
  0.7442973  0.9988515  0.2540728

 Al 
  0.7580850  0.2387110  0.9917257

 Al 
  0.0089909  0.4791384  0.0035889

 Al 
  0.9889251  0.7510470  0.2421699

 Al 
  0.2548871  0.4998280  0.2561197

 Al 
  0.2381602  0.7559985  0.0052918

 Al 
  0.9961846  0.9999295  0.5102903

 Al 
  0.9874474  0.2399250  0.7457329

 Al 
  0.2581989  0.0287201  0.7580516

 Al 
  0.2471610  0.2605515  0.4853473

 Al 
  0.9901948  0.5275197  0.4954223

 Al 
  0.0103027  0.7546173  0.7561730

 Al 
  0.2645030  0.5042448  0.7501931

 Al 
  0.2495817  0.7620019  0.5263527

 Al 
  0.5110007  0.4807336  0.9898025

 Al 
  0.4882073  0.7447725  0.2685907

 Al 
  0.7536248  0.4925301  0.2328969

 Al 
  0.7367222  0.7552361  0.9910908

 Al 
  0.4892481  0.0007586  0.4940783

 Al 
  0.5075355  0.2641367  0.7438654

 Al 
  0.7566680  0.9939434  0.7650834

 Al 
  0.7549453  0.2379833  0.4914447

 Al 
  0.4888570  0.4905339  0.4976325

 Al 
  0.4954990  0.7468640  0.7482637

 Al 
  0.7558302  0.4988119  0.7282461

 Al 
  0.7428283  0.7558784  0.4979060

