32 
charge = 0 
 Al 
  0.9994617  0.9948889  0.0111591

 Al 
  0.0001460  0.2518959  0.2448344

 Al 
  0.2514876  0.0089748  0.2729333

 Al 
  0.2628768  0.2564514  0.0108014

 Al 
  0.4864140  0.9913309  0.0037288

 Al 
  0.5160784  0.2355552  0.2273279

 Al 
  0.7453431  0.9970299  0.2539206

 Al 
  0.7540147  0.2410190  0.9877320

 Al 
  0.0035939  0.4755619  0.0009393

 Al 
  0.9864673  0.7503960  0.2418333

 Al 
  0.2561680  0.4998602  0.2587978

 Al 
  0.2337780  0.7594921  0.0077162

 Al 
  0.9939892  0.9967365  0.5143990

 Al 
  0.9866034  0.2390018  0.7483677

 Al 
  0.2603559  0.0285370  0.7584142

 Al 
  0.2493045  0.2639647  0.4872407

 Al 
  0.9910660  0.5242030  0.4951686

 Al 
  0.0139894  0.7532734  0.7558747

 Al 
  0.2689694  0.5023885  0.7472576

 Al 
  0.2515395  0.7633075  0.5251510

 Al 
  0.5150983  0.4818462  0.9920449

 Al 
  0.4863843  0.7421328  0.2663185

 Al 
  0.7540134  0.4989901  0.2314341

 Al 
  0.7359982  0.7501992  0.9895562

 Al 
  0.4865390  0.9985211  0.4958888

 Al 
  0.5092013  0.2629697  0.7430758

 Al 
  0.7552745  0.9953208  0.7615180

 Al 
  0.7578560  0.2364846  0.4877160

 Al 
  0.4948616  0.4918011  0.5002512

 Al 
  0.4916328  0.7500730  0.7498478

 Al 
  0.7577273  0.5024850  0.7280964

 Al 
  0.7437652  0.7553079  0.5006534

