32 
charge = 0 
 Al 
  0.0005111  0.9949000  0.0115168

 Al 
  0.0004777  0.2521150  0.2448418

 Al 
  0.2515618  0.0088572  0.2726004

 Al 
  0.2625910  0.2560542  0.0107779

 Al 
  0.4857792  0.9914299  0.0037263

 Al 
  0.5165314  0.2353633  0.2272821

 Al 
  0.7451512  0.9973529  0.2539751

 Al 
  0.7546743  0.2406502  0.9883582

 Al 
  0.0044577  0.4760631  0.0014121

 Al 
  0.9868534  0.7505012  0.2418618

 Al 
  0.2559836  0.4998317  0.2584129

 Al 
  0.2344179  0.7589711  0.0073227

 Al 
  0.9943245  0.9972514  0.5137778

 Al 
  0.9866776  0.2390995  0.7479593

 Al 
  0.2600354  0.0286038  0.7583820

 Al 
  0.2489728  0.2634474  0.4868695

 Al 
  0.9908779  0.5247983  0.4952119

 Al 
  0.0134498  0.7534986  0.7559056

 Al 
  0.2683320  0.5027090  0.7476957

 Al 
  0.2512462  0.7631144  0.5254047

 Al 
  0.5144646  0.4815925  0.9916675

 Al 
  0.4866504  0.7425375  0.2667393

 Al 
  0.7539726  0.4979531  0.2316259

 Al 
  0.7360873  0.7510408  0.9897629

 Al 
  0.4869128  0.9988379  0.4955448

 Al 
  0.5089265  0.2632407  0.7432120

 Al 
  0.7555443  0.9951042  0.7621442

 Al 
  0.7574167  0.2366789  0.4882914

 Al 
  0.4938431  0.4915734  0.4998626

 Al 
  0.4922182  0.7495409  0.7495780

 Al 
  0.7574303  0.5018935  0.7280716

 Al 
  0.7436266  0.7553933  0.5002054

