32 
charge = 0 
 Al 
  0.0015804  0.9949272  0.0118769

 Al 
  0.0008156  0.2523266  0.2448641

 Al 
  0.2516212  0.0087248  0.2722328

 Al 
  0.2622853  0.2556408  0.0107420

 Al 
  0.4851431  0.9915289  0.0037226

 Al 
  0.5169806  0.2351864  0.2272685

 Al 
  0.7449644  0.9976709  0.2540184

 Al 
  0.7553463  0.2402728  0.9890055

 Al 
  0.0053426  0.4766051  0.0018761

 Al 
  0.9872506  0.7506089  0.2419026

 Al 
  0.2557868  0.4998119  0.2580008

 Al 
  0.2350973  0.7584229  0.0069229

 Al 
  0.9946760  0.9977761  0.5131268

 Al 
  0.9867791  0.2392196  0.7475348

 Al 
  0.2596975  0.0286570  0.7583399

 Al 
  0.2486288  0.2629065  0.4865192

 Al 
  0.9907059  0.5253799  0.4952552

 Al 
  0.0128768  0.7537238  0.7559440

 Al 
  0.2676476  0.5030271  0.7481573

 Al 
  0.2509368  0.7629090  0.5256386

 Al 
  0.5138075  0.4813648  0.9912876

 Al 
  0.4869338  0.7429607  0.2671464

 Al 
  0.7539206  0.4968925  0.2318400

 Al 
  0.7361900  0.7518898  0.9899881

 Al 
  0.4873212  0.9991795  0.4952143

 Al 
  0.5086506  0.2634832  0.7433469

 Al 
  0.7558005  0.9948790  0.7627617

 Al 
  0.7569551  0.2368979  0.4888904

 Al 
  0.4928246  0.4913519  0.4994530

 Al 
  0.4928308  0.7490038  0.7493094

 Al 
  0.7571234  0.5012883  0.7280667

 Al 
  0.7434780  0.7554836  0.4997512

