32 
charge = 0 
 Al 
  0.9955250  0.9949941  0.0097681

 Al 
  0.9988924  0.2509715  0.2449359

 Al 
  0.2510371  0.0093114  0.2739221

 Al 
  0.2638260  0.2578758  0.0107693

 Al 
  0.4889114  0.9909250  0.0037350

 Al 
  0.5142740  0.2364376  0.2278216

 Al 
  0.7461202  0.9957131  0.2536025

 Al 
  0.7515173  0.2423791  0.9854735

 Al 
  0.0003935  0.4739827  0.9989926

 Al 
  0.9850651  0.7500037  0.2418234

 Al 
  0.2567645  0.5000557  0.2600564

 Al 
  0.2316383  0.7612829  0.0092087

 Al 
  0.9928184  0.9948060  0.5165660

 Al 
  0.9865712  0.2388223  0.7498267

 Al 
  0.2614338  0.0281533  0.7584501

 Al 
  0.2504913  0.2657604  0.4888842

 Al 
  0.9919534  0.5217390  0.4949941

 Al 
  0.0157975  0.7523848  0.7558264

 Al 
  0.2710485  0.5011126  0.7457725

 Al 
  0.2525321  0.7639399  0.5239666

 Al 
  0.5173308  0.4830751  0.9934867

 Al 
  0.4855131  0.7407133  0.2645426

 Al 
  0.7540914  0.5028353  0.2309069

 Al 
  0.7357854  0.7469519  0.9889053

 Al 
  0.4854265  0.9975051  0.4973640

 Al 
  0.5102643  0.2616616  0.7425325

 Al 
  0.7540753  0.9960930  0.7589884

 Al 
  0.7593795  0.2359487  0.4856616

 Al 
  0.4988949  0.4927355  0.5015655

 Al 
  0.4895884  0.7521261  0.7509331

 Al 
  0.7588077  0.5046866  0.7283810

 Al 
  0.7442317  0.7550196  0.5023365

