32 
charge = 0 
 Al 
  0.9911824  0.9954161  0.0081308

 Al 
  0.9975212  0.2497537  0.2452911

 Al 
  0.2501510  0.0094735  0.2744307

 Al 
  0.2645698  0.2592978  0.0104450

 Al 
  0.4918804  0.9904237  0.0037622

 Al 
  0.5121306  0.2377358  0.2290926

 Al 
  0.7470274  0.9940560  0.2530172

 Al 
  0.7487303  0.2438023  0.9832360

 Al 
  0.9970113  0.4729246  0.9965125

 Al 
  0.9836419  0.7495792  0.2420363

 Al 
  0.2571940  0.5004505  0.2610254

 Al 
  0.2298463  0.7629078  0.0109017

 Al 
  0.9917615  0.9927070  0.5185771

 Al 
  0.9870774  0.2390154  0.7512190

 Al 
  0.2623150  0.0274603  0.7583436

 Al 
  0.2516732  0.2673964  0.4912282

 Al 
  0.9933134  0.5185300  0.4947713

 Al 
  0.0173085  0.7512871  0.7559168

 Al 
  0.2726622  0.4995768  0.7445151

 Al 
  0.2533501  0.7643817  0.5221610

 Al 
  0.5194000  0.4849958  0.9950597

 Al 
  0.4848708  0.7394176  0.2621739

 Al 
  0.7540147  0.5068833  0.2307980

 Al 
  0.7358509  0.7432862  0.9883880

 Al 
  0.4849017  0.9967861  0.4993280

 Al 
  0.5115205  0.2596332  0.7418606

 Al 
  0.7523378  0.9968133  0.7558462

 Al 
  0.7607544  0.2358014  0.4836654

 Al 
  0.5037869  0.4939322  0.5026719

 Al 
  0.4876751  0.7544713  0.7523031

 Al 
  0.7599277  0.5070219  0.7291248

 Al 
  0.7446092  0.7547819  0.5041669

