32 
charge = 0 
 Al 
  0.9937181  0.9951277  0.0091023

 Al 
  0.9983182  0.2504913  0.2450522

 Al 
  0.2507240  0.0094067  0.2742166

 Al 
  0.2641800  0.2584884  0.0106777

 Al 
  0.4901181  0.9907220  0.0037412

 Al 
  0.5133979  0.2369338  0.2282461

 Al 
  0.7464965  0.9950498  0.2533909

 Al 
  0.7503614  0.2429843  0.9845020

 Al 
  0.9989617  0.4734431  0.9980038

 Al 
  0.9844525  0.7498255  0.2418791

 Al 
  0.2569774  0.5001955  0.2605193

 Al 
  0.2308128  0.7620081  0.0099055

 Al 
  0.9923420  0.9939260  0.5174583

 Al 
  0.9867049  0.2388496  0.7504406

 Al 
  0.2618472  0.0279008  0.7584241

 Al 
  0.2510012  0.2664930  0.4897864

 Al 
  0.9924670  0.5204718  0.4949062

 Al 
  0.0164967  0.7519454  0.7558438

 Al 
  0.2718158  0.5004888  0.7451933

 Al 
  0.2529145  0.7641639  0.5232860

 Al 
  0.5182540  0.4837978  0.9941488

 Al 
  0.4851975  0.7401317  0.2636119

 Al 
  0.7540815  0.5045542  0.2307906

 Al 
  0.7357668  0.7454309  0.9886664

 Al 
  0.4851022  0.9971474  0.4981387

 Al 
  0.5107742  0.2608955  0.7422628

 Al 
  0.7534120  0.9964135  0.7577273

 Al 
  0.7599970  0.2358237  0.4847904

 Al 
  0.5008688  0.4932120  0.5020766

 Al 
  0.4887431  0.7530927  0.7514776

 Al 
  0.7592842  0.5056755  0.7286285

 Al 
  0.7444087  0.7549094  0.5031050

