32 
charge = 0 
 Al 
  0.9964692  0.9949458  0.0101084

 Al 
  0.9991931  0.2512079  0.2448926

 Al 
  0.2511720  0.0092471  0.2737253

 Al 
  0.2636181  0.2575442  0.0107965

 Al 
  0.4882964  0.9910264  0.0037337

 Al 
  0.5147196  0.2362012  0.2276533

 Al 
  0.7459272  0.9960435  0.2536954

 Al 
  0.7521187  0.2420573  0.9859995

 Al 
  0.0011522  0.4743144  0.9994839

 Al 
  0.9853930  0.7500978  0.2418098

 Al 
  0.2566370  0.4999963  0.2597842

 Al 
  0.2321110  0.7608782  0.0088473

 Al 
  0.9930833  0.9952676  0.5160735

 Al 
  0.9865415  0.2388372  0.7494901

 Al 
  0.2611950  0.0282647  0.7584538

 Al 
  0.2502166  0.2653532  0.4884523

 Al 
  0.9917133  0.5223652  0.4950386

 Al 
  0.0153978  0.7526051  0.7558277

 Al 
  0.2705992  0.5014281  0.7461029

 Al 
  0.2523118  0.7638038  0.5242859

 Al 
  0.5168197  0.4827385  0.9931390

 Al 
  0.4857012  0.7410376  0.2649980

 Al 
  0.7540852  0.5019244  0.2310022

 Al 
  0.7358163  0.7477402  0.9890439

 Al 
  0.4856468  0.9977204  0.4969841

 Al 
  0.5100032  0.2620192  0.7426674

 Al 
  0.7543921  0.9959160  0.7596220

 Al 
  0.7590342  0.2360465  0.4861356

 Al 
  0.4978961  0.4924991  0.5012735

 Al 
  0.4900549  0.7516262  0.7506621

 Al 
  0.7585540  0.5041632  0.7282820

 Al 
  0.7441290  0.7550839  0.5019331

