32 
charge = 0 
 Al 
  0.9974395  0.9949124  0.0104549

 Al 
  0.9995025  0.2514418  0.2448616

 Al 
  0.2512920  0.0091691  0.2734964

 Al 
  0.2633917  0.2571977  0.0108113

 Al 
  0.4876751  0.9911292  0.0037325

 Al 
  0.5151700  0.2359759  0.2275147

 Al 
  0.7457329  0.9963752  0.2537795

 Al 
  0.7527350  0.2417232  0.9865514

 Al 
  0.0019393  0.4746869  0.9999728

 Al 
  0.9857371  0.7501943  0.2418073

 Al 
  0.2564947  0.4999431  0.2594847

 Al 
  0.2326246  0.7604450  0.0084785

 Al 
  0.9933679  0.9957428  0.5155475

 Al 
  0.9865353  0.2388706  0.7491349

 Al 
  0.2609363  0.0283662  0.7584488

 Al 
  0.2499270  0.2649176  0.4880328

 Al 
  0.9914843  0.5229852  0.4950819

 Al 
  0.0149634  0.7528266  0.7558363

 Al 
  0.2701030  0.5017474  0.7464606

 Al 
  0.2520729  0.7636528  0.5245904

 Al 
  0.5162764  0.4824217  0.9927825

 Al 
  0.4859091  0.7413816  0.2654473

 Al 
  0.7540703  0.5009777  0.2311222

 Al 
  0.7358633  0.7485459  0.9891973

 Al 
  0.4859054  0.9979617  0.4966116

 Al 
  0.5097396  0.2623571  0.7428036

 Al 
  0.7546978  0.9957279  0.7602544

 Al 
  0.7586654  0.2361678  0.4866368

 Al 
  0.4968900  0.4922640  0.5009579

 Al 
  0.4905512  0.7511175  0.7503911

 Al 
  0.7582892  0.5036211  0.7282016

 Al 
  0.7440176  0.7551532  0.5015185

