32 
charge = 0 
 Al 
  0.9895822  0.9956611  0.0074922

 Al 
  0.9970261  0.2492525  0.2454854

 Al 
  0.2497005  0.0094748  0.2744332

 Al 
  0.2647418  0.2597743  0.0102260

 Al 
  0.4930350  0.9902282  0.0037882

 Al 
  0.5113150  0.2383100  0.2297968

 Al 
  0.7473553  0.9933927  0.2527338

 Al 
  0.7476969  0.2442924  0.9825083

 Al 
  0.9958257  0.4727588  0.9955101

 Al 
  0.9831679  0.7494245  0.2421885

 Al 
  0.2572732  0.5006472  0.2612482

 Al 
  0.2293649  0.7633991  0.0115427

 Al 
  0.9914559  0.9919534  0.5191921

 Al 
  0.9874350  0.2392010  0.7516497

 Al 
  0.2625291  0.0271261  0.7582706

 Al 
  0.2520704  0.2678791  0.4922491

 Al 
  0.9939273  0.5171996  0.4946785

 Al 
  0.0177095  0.7508391  0.7559972

 Al 
  0.2730471  0.4989790  0.7441810

 Al 
  0.2535543  0.7644448  0.5213405

 Al 
  0.5200089  0.4858670  0.9956116

 Al 
  0.4847470  0.7390426  0.2611801

 Al 
  0.7539379  0.5082855  0.2309267

 Al 
  0.7359858  0.7419435  0.9882419

 Al 
  0.4849512  0.9966549  0.5001349

 Al 
  0.5120093  0.2587223  0.7415883

 Al 
  0.7515680  0.9970323  0.7545901

 Al 
  0.7611554  0.2358905  0.4830281

 Al 
  0.5057237  0.4944186  0.5029627

 Al 
  0.4870798  0.7553475  0.7528650

 Al 
  0.7603163  0.5078362  0.7295381

 Al 
  0.7447032  0.7547201  0.5048203

