32 
charge = 0 
 Al 
  0.9834625  0.9970558  0.0048116

 Al 
  0.9952416  0.2471128  0.2464630

 Al 
  0.2473331  0.0091963  0.2734295

 Al 
  0.2647864  0.2613126  0.0087879

 Al 
  0.4977328  0.9895092  0.0040543

 Al 
  0.5081605  0.2409856  0.2338659

 Al 
  0.7483936  0.9906638  0.2513291

 Al 
  0.7437565  0.2459074  0.9804032

 Al 
  0.9917133  0.4734679  0.9913185

 Al 
  0.9817237  0.7488614  0.2432182

 Al 
  0.2571011  0.5016410  0.2613645

 Al 
  0.2285271  0.7646874  0.0140958

 Al 
  0.9908123  0.9892617  0.5207589

 Al 
  0.9897208  0.2404609  0.7527090

 Al 
  0.2626368  0.0254121  0.7578994

 Al 
  0.2534206  0.2689768  0.4969370

 Al 
  0.9968195  0.5113262  0.4942775

 Al 
  0.0183382  0.7488317  0.7565640

 Al 
  0.2734097  0.4966239  0.7436822

 Al 
  0.2537820  0.7640142  0.5173432

 Al 
  0.5212551  0.4900129  0.9974222

 Al 
  0.4849921  0.7383186  0.2567707

 Al 
  0.7534045  0.5129152  0.2325244

 Al 
  0.7372469  0.7371145  0.9878224

 Al 
  0.4865885  0.9969296  0.5035011

 Al 
  0.5140030  0.2544701  0.7403990

 Al 
  0.7479320  0.9976115  0.7493243

 Al 
  0.7620390  0.2370217  0.4812163

 Al 
  0.5137691  0.4964816  0.5033686

 Al 
  0.4854067  0.7586308  0.7553252

 Al 
  0.7616752  0.5105713  0.7319155

 Al 
  0.7448146  0.7546124  0.5070962

