32 
charge = 0 
 Al 
  0.9888013  0.9957997  0.0071717

 Al 
  0.9967885  0.2489988  0.2455906

 Al 
  0.2494555  0.0094636  0.2743948

 Al 
  0.2648025  0.2599970  0.0100973

 Al 
  0.4936105  0.9901317  0.0038055

 Al 
  0.5109141  0.2386082  0.2301928

 Al 
  0.7475088  0.9930597  0.2525816

 Al 
  0.7471932  0.2445225  0.9821779

 Al 
  0.9952626  0.4727291  0.9950040

 Al 
  0.9829489  0.7493503  0.2422801

 Al 
  0.2572942  0.5007537  0.2613286

 Al 
  0.2291693  0.7636157  0.0118596

 Al 
  0.9913259  0.9915908  0.5194631

 Al 
  0.9876454  0.2393136  0.7518390

 Al 
  0.2626083  0.0269467  0.7582298

 Al 
  0.2522561  0.2680882  0.4927801

 Al 
  0.9942490  0.5165190  0.4946315

 Al 
  0.0178704  0.7506089  0.7560455

 Al 
  0.2731907  0.4986832  0.7440473

 Al 
  0.2536322  0.7644535  0.5209061

 Al 
  0.5202688  0.4863262  0.9958715

 Al 
  0.4847124  0.7388842  0.2606715

 Al 
  0.7538909  0.5089451  0.2310294

 Al 
  0.7360774  0.7412950  0.9881776

 Al 
  0.4850292  0.9966202  0.5005433

 Al 
  0.5122531  0.2582446  0.7414509

 Al 
  0.7511645  0.9971289  0.7539577

 Al 
  0.7613274  0.2359648  0.4827385

 Al 
  0.5066952  0.4946649  0.5030791

 Al 
  0.4868138  0.7557745  0.7531521

 Al 
  0.7605020  0.5082224  0.7297708

 Al 
  0.7447391  0.7546953  0.5051334

