32 
charge = 0 
 Al 
  0.9842273  0.9968455  0.0051718

 Al 
  0.9954532  0.2473962  0.2463269

 Al 
  0.2476820  0.0092533  0.2736412

 Al 
  0.2648347  0.2611467  0.0090218

 Al 
  0.4971239  0.9895909  0.0040023

 Al 
  0.5085540  0.2406106  0.2332360

 Al 
  0.7482909  0.9910153  0.2515284

 Al 
  0.7442466  0.2457304  0.9806012

 Al 
  0.9921873  0.4732587  0.9918655

 Al 
  0.9818660  0.7489283  0.2430486

 Al 
  0.2571642  0.5014987  0.2614128

 Al 
  0.2285444  0.7645760  0.0137691

 Al 
  0.9908445  0.9895772  0.5206351

 Al 
  0.9893570  0.2402591  0.7526323

 Al 
  0.2626900  0.0256646  0.7579489

 Al 
  0.2532622  0.2689100  0.4962898

 Al 
  0.9964160  0.5121269  0.4943295

 Al 
  0.0183382  0.7491102  0.7564700

 Al 
  0.2734568  0.4969185  0.7436748

 Al 
  0.2537993  0.7641330  0.5179162

 Al 
  0.5212056  0.4894300  0.9972279

 Al 
  0.4848955  0.7383409  0.2573722

 Al 
  0.7534899  0.5124128  0.2322199

 Al 
  0.7370167  0.7376764  0.9878682

 Al 
  0.4862556  0.9968269  0.5030667

 Al 
  0.5137456  0.2550592  0.7405611

 Al 
  0.7484431  0.9975608  0.7500186

 Al 
  0.7619883  0.2368125  0.4813846

 Al 
  0.5127147  0.4962093  0.5033810

 Al 
  0.4855663  0.7582347  0.7549923

 Al 
  0.7615168  0.5102693  0.7315479

 Al 
  0.7448208  0.7546161  0.5068363

