32 
charge = 0 
 Al 
  0.9880291  0.9959482  0.0068499

 Al 
  0.9965559  0.2487414  0.2457019

 Al 
  0.2491956  0.0094451  0.2743305

 Al 
  0.2648470  0.2602087  0.0099537

 Al 
  0.4941859  0.9900376  0.0038265

 Al 
  0.5105168  0.2389164  0.2306185

 Al 
  0.7476573  0.9927244  0.2524219

 Al 
  0.7466945  0.2447441  0.9818672

 Al 
  0.9947156  0.4727315  0.9944941

 Al 
  0.9827410  0.7492773  0.2423803

 Al 
  0.2573029  0.5008651  0.2613893

 Al 
  0.2289998  0.7638149  0.0121751

 Al 
  0.9912108  0.9912381  0.5197107

 Al 
  0.9878768  0.2394399  0.7520110

 Al 
  0.2626689  0.0267573  0.7581865

 Al 
  0.2524355  0.2682751  0.4933246

 Al 
  0.9945820  0.5158272  0.4945832

 Al 
  0.0180065  0.7503762  0.7560999

 Al 
  0.2733045  0.4983887  0.7439347

 Al 
  0.2536954  0.7644436  0.5204557

 Al 
  0.5204990  0.4868002  0.9961215

 Al 
  0.4846975  0.7387456  0.2601530

 Al 
  0.7538377  0.5095800  0.2311581

 Al 
  0.7361863  0.7406601  0.9881194

 Al 
  0.4851443  0.9966054  0.5009542

 Al 
  0.5124981  0.2577533  0.7413111

 Al 
  0.7507475  0.9972180  0.7533204

 Al 
  0.7614809  0.2360576  0.4824687

 Al 
  0.5076716  0.4949136  0.5031743

 Al 
  0.4865663  0.7561965  0.7534429

 Al 
  0.7606814  0.5085936  0.7300208

 Al 
  0.7447676  0.7546743  0.5054366

