32 
charge = 0 
 Al 
  0.9762759  0.9993973  0.0010136

 Al 
  0.9934075  0.2443159  0.2477551

 Al 
  0.2435436  0.0084563  0.2704297

 Al 
  0.2636837  0.2624536  0.0059143

 Al 
  0.5036533  0.9890030  0.0048488

 Al 
  0.5044899  0.2450015  0.2413408

 Al 
  0.7488491  0.9873670  0.2493132

 Al 
  0.7392344  0.2472613  0.9794911

 Al 
  0.9878112  0.4770197  0.9861220

 Al 
  0.9810034  0.7483132  0.2453975

 Al 
  0.2559750  0.5031347  0.2601926

 Al 
  0.2294268  0.7651441  0.0172021

 Al 
  0.9911304  0.9866257  0.5209346

 Al 
  0.9940127  0.2428246  0.7526434

 Al 
  0.2612024  0.0224494  0.7575108

 Al 
  0.2549304  0.2686365  0.5035815

 Al 
  0.0010123  0.5030419  0.4938283

 Al 
  0.0173506  0.7458430  0.7577113

 Al 
  0.2719667  0.4940399  0.7446141

 Al 
  0.2531496  0.7619549  0.5110725

 Al 
  0.5201141  0.4961363  0.9987030

 Al 
  0.4867940  0.7391404  0.2505903

 Al 
  0.7523860  0.5164051  0.2368831

 Al 
  0.7405178  0.7327088  0.9873707

 Al 
  0.4912220  0.9986795  0.5074427

 Al 
  0.5164051  0.2484766  0.7387097

 Al 
  0.7426068  0.9978405  0.7424917

 Al 
  0.7617321  0.2398111  0.4804242

 Al 
  0.5240817  0.4991436  0.5024776

 Al 
  0.4844401  0.7619870  0.7586926

 Al 
  0.7629895  0.5127345  0.7361851

 Al 
  0.7446018  0.7546532  0.5091097

