32 
charge = 0 
 Al 
  0.9803376  0.9980038  0.0032610

 Al 
  0.9944087  0.2459210  0.2470348

 Al 
  0.2457861  0.0089142  0.2723368

 Al 
  0.2644436  0.2619029  0.0076816

 Al 
  0.5002698  0.9892208  0.0043290

 Al 
  0.5065616  0.2426278  0.2367853

 Al 
  0.7487117  0.9892196  0.2504740

 Al 
  0.7417702  0.2465571  0.9797968

 Al 
  0.9898965  0.4746733  0.9890562

 Al 
  0.9812670  0.7486028  0.2440362

 Al 
  0.2567212  0.5022623  0.2610019

 Al 
  0.2286941  0.7650079  0.0154448

 Al 
  0.9908148  0.9880414  0.5210509

 Al 
  0.9914076  0.2413940  0.7528501

 Al 
  0.2622172  0.0242562  0.7577063

 Al 
  0.2540617  0.2690436  0.4997215

 Al 
  0.9985669  0.5078833  0.4940671

 Al 
  0.0181142  0.7476115  0.7570108

 Al 
  0.2729877  0.4954458  0.7439038

 Al 
  0.2535951  0.7633273  0.5148025

 Al 
  0.5211165  0.4925486  0.9981003

 Al 
  0.4855824  0.7384474  0.2541891

 Al 
  0.7530048  0.5147146  0.2340899

 Al 
  0.7384201  0.7349884  0.9876355

 Al 
  0.4882927  0.9975298  0.5052671

 Al 
  0.5150599  0.2519417  0.7396961

 Al 
  0.7457143  0.9977637  0.7464111

 Al 
  0.7620737  0.2380625  0.4807039

 Al 
  0.5181847  0.4976226  0.5031434

 Al 
  0.4848819  0.7601827  0.7567447

 Al 
  0.7622853  0.5116677  0.7336011

 Al 
  0.7447478  0.7546173  0.5080677

