32 
charge = 0 
 Al 
  0.9746386  0.9999975  0.0000248

 Al 
  0.9930288  0.2436550  0.2480187

 Al 
  0.2425845  0.0082521  0.2695213

 Al 
  0.2632865  0.2626009  0.0051111

 Al 
  0.5050344  0.9889832  0.0051124

 Al 
  0.5036483  0.2460311  0.2434026

 Al 
  0.7488058  0.9866418  0.2488491

 Al 
  0.7382333  0.2475125  0.9795245

 Al 
  0.9870613  0.4781979  0.9849698

 Al 
  0.9810133  0.7482142  0.2460435

 Al 
  0.2556012  0.5034986  0.2597743

 Al 
  0.2298686  0.7651193  0.0178989

 Al 
  0.9913532  0.9861084  0.5207341

 Al 
  0.9951735  0.2434595  0.7524417

 Al 
  0.2606455  0.0216116  0.7574588

 Al 
  0.2553104  0.2683147  0.5051841

 Al 
  0.0020383  0.5009913  0.4937540

 Al 
  0.0169076  0.7450795  0.7580182

 Al 
  0.2714284  0.4935362  0.7450225

 Al 
  0.2529268  0.7612457  0.5094476

 Al 
  0.5194421  0.4976523  0.9988577

 Al 
  0.4874202  0.7395921  0.2490817

 Al 
  0.7521088  0.5168667  0.2382432

 Al 
  0.7415512  0.7319724  0.9872543

 Al 
  0.4925920  0.9992352  0.5082459

 Al 
  0.5169237  0.2470633  0.7382939

 Al 
  0.7413173  0.9978318  0.7408915

 Al 
  0.7614796  0.2406329  0.4804292

 Al 
  0.5264764  0.4997612  0.5021063

 Al 
  0.4843213  0.7626318  0.7594946

 Al 
  0.7632382  0.5130390  0.7373298

 Al 
  0.7445411  0.7546718  0.5094575

