32 
charge = 0 
 Al 
  0.9693320  0.0020519  0.9963554

 Al 
  0.9919039  0.2414546  0.2486548

 Al 
  0.2392877  0.0075355  0.2659992

 Al 
  0.2616232  0.2627160  0.0021707

 Al 
  0.5095626  0.9893112  0.0062113

 Al 
  0.5008354  0.2497067  0.2510247

 Al 
  0.7481857  0.9844463  0.2474358

 Al 
  0.7350750  0.2483008  0.9803747

 Al 
  0.9850898  0.4829637  0.9815108

 Al 
  0.9816395  0.7479890  0.2486003

 Al 
  0.2541038  0.5046990  0.2580677

 Al 
  0.2318697  0.7647146  0.0200176

 Al 
  0.9925350  0.9846629  0.5194297

 Al 
  0.9993627  0.2457477  0.7513131

 Al 
  0.2581692  0.0182936  0.7574316

 Al 
  0.2567373  0.2665450  0.5104661

 Al 
  0.0055270  0.4939496  0.4936798

 Al 
  0.0149770  0.7424175  0.7590194

 Al 
  0.2691538  0.4923296  0.7468331

 Al 
  0.2521039  0.7582236  0.5036929

 Al 
  0.5160376  0.5027969  0.9989840

 Al 
  0.4900537  0.7418395  0.2440090

 Al 
  0.7510940  0.5173519  0.2436278

 Al 
  0.7457552  0.7305133  0.9868509

 Al 
  0.4976759  0.0012994  0.5103361

 Al 
  0.5184199  0.2425920  0.7369214

 Al 
  0.7371615  0.9976078  0.7357247

 Al 
  0.7601752  0.2437652  0.4809576

 Al 
  0.5341827  0.5017697  0.5005606

 Al 
  0.4841555  0.7642938  0.7620984

 Al 
  0.7638087  0.5133979  0.7413631

 Al 
  0.7444025  0.7547139  0.5102792

