32 
charge = 0 
 Al 
  0.9707428  0.0014925  0.9974147

 Al 
  0.9921848  0.2420499  0.2485310

 Al 
  0.2401936  0.0077335  0.2670301

 Al 
  0.2621281  0.2627481  0.0030023

 Al 
  0.5083523  0.9891491  0.0058797

 Al 
  0.5016026  0.2486709  0.2488454

 Al 
  0.7484357  0.9849995  0.2477897

 Al 
  0.7358992  0.2480855  0.9800183

 Al 
  0.9855292  0.4815442  0.9823697

 Al 
  0.9813648  0.7480323  0.2478405

 Al 
  0.2545480  0.5043797  0.2585775

 Al 
  0.2312485  0.7648767  0.0194867

 Al 
  0.9921402  0.9850082  0.5198852

 Al 
  0.9981808  0.2451030  0.7516905

 Al 
  0.2589439  0.0192874  0.7574142

 Al 
  0.2563202  0.2671415  0.5090565

 Al 
  0.0045703  0.4958826  0.4936662

 Al 
  0.0155648  0.7431513  0.7587632

 Al 
  0.2698468  0.4925647  0.7462725

 Al 
  0.2523340  0.7591530  0.5053017

 Al 
  0.5171501  0.5013947  0.9990112

 Al 
  0.4892505  0.7411081  0.2453789

 Al 
  0.7513836  0.5173964  0.2420412

 Al 
  0.7444941  0.7307349  0.9869586

 Al 
  0.4962329  0.0007203  0.5098844

 Al 
  0.5180597  0.2437454  0.7372853

 Al 
  0.7382456  0.9977043  0.7370836

 Al 
  0.7606010  0.2428568  0.4807312

 Al 
  0.5321568  0.5012338  0.5010198

 Al 
  0.4841654  0.7639288  0.7614128

 Al 
  0.7637072  0.5134139  0.7402480

 Al 
  0.7444235  0.7547089  0.5101109

