32 
charge = 0 
 Al 
  0.9674298  0.0028179  0.9947824

 Al 
  0.9915499  0.2406354  0.2487426

 Al 
  0.2380216  0.0072583  0.2644622

 Al 
  0.2608485  0.2625736  0.0009876

 Al 
  0.5112012  0.9896589  0.0067113

 Al 
  0.4997624  0.2512004  0.2541891

 Al 
  0.7477192  0.9837545  0.2470039

 Al 
  0.7339835  0.2486214  0.9810641

 Al 
  0.9846493  0.4850936  0.9804737

 Al 
  0.9821878  0.7479543  0.2497525

 Al 
  0.2534379  0.5051198  0.2572942

 Al 
  0.2328301  0.7644127  0.0206698

 Al 
  0.9932033  0.9842533  0.5186563

 Al 
  0.0010532  0.2466697  0.7506906

 Al 
  0.2569427  0.0167615  0.7574947

 Al 
  0.2573623  0.2655450  0.5123595

 Al 
  0.0068648  0.4912591  0.4937590

 Al 
  0.0140909  0.7414027  0.7593238

 Al 
  0.2680857  0.4921675  0.7477068

 Al 
  0.2517870  0.7567757  0.5014096

 Al 
  0.5142208  0.5047362  0.9988639

 Al 
  0.4912975  0.7430276  0.2421440

 Al 
  0.7506782  0.5170276  0.2459779

 Al 
  0.7476672  0.7304799  0.9867210

 Al 
  0.4997302  0.0020989  0.5107532

 Al 
  0.5188369  0.2411217  0.7364425

 Al 
  0.7357680  0.9974184  0.7339364

 Al 
  0.7594896  0.2450993  0.4813920

 Al 
  0.5368521  0.5024999  0.4998960

 Al 
  0.4841939  0.7646577  0.7629994

 Al 
  0.7638458  0.5131924  0.7429063

 Al 
  0.7444062  0.7547065  0.5104351

