32 
charge = 0 
 Al 
  0.9680338  0.0025729  0.9953022

 Al 
  0.9916588  0.2408977  0.2487265

 Al 
  0.2384313  0.0073474  0.2649708

 Al 
  0.2611084  0.2626330  0.0013712

 Al 
  0.5106802  0.9895290  0.0065455

 Al 
  0.5001101  0.2507116  0.2531521

 Al 
  0.7478862  0.9839661  0.2471338

 Al 
  0.7343275  0.2485137  0.9808141

 Al 
  0.9847668  0.4843869  0.9807831

 Al 
  0.9819873  0.7479617  0.2493676

 Al 
  0.2536582  0.5049874  0.2575516

 Al 
  0.2325083  0.7645203  0.0204730

 Al 
  0.9929719  0.9843745  0.5189248

 Al 
  0.0005025  0.2463690  0.7509047

 Al 
  0.2573585  0.0172764  0.7574687

 Al 
  0.2571543  0.2658915  0.5117593

 Al 
  0.0064328  0.4921254  0.4937243

 Al 
  0.0143854  0.7417281  0.7592347

 Al 
  0.2684434  0.4921947  0.7474123

 Al 
  0.2518885  0.7572645  0.5021509

 Al 
  0.5148433  0.5041137  0.9989147

 Al 
  0.4908792  0.7426217  0.2427380

 Al 
  0.7508143  0.5171687  0.2452032

 Al 
  0.7470299  0.7304527  0.9867593

 Al 
  0.4990644  0.0018440  0.5106505

 Al 
  0.5187157  0.2415759  0.7365922

 Al 
  0.7361987  0.9974877  0.7344971

 Al 
  0.7597235  0.2446599  0.4812348

 Al 
  0.5360155  0.5022672  0.5001126

 Al 
  0.4841753  0.7645612  0.7627172

 Al 
  0.7638496  0.5132840  0.7424113

 Al 
  0.7444000  0.7547114  0.5103968

