32 
charge = 0 
 Al 
  0.9668568  0.0030518  0.9942651

 Al 
  0.9914509  0.2403829  0.2487451

 Al 
  0.2376269  0.0071729  0.2639560

 Al 
  0.2605886  0.2625031  0.0006151

 Al 
  0.5116962  0.9898025  0.0068747

 Al 
  0.4994270  0.2516794  0.2552064

 Al 
  0.7475410  0.9835627  0.2468875

 Al 
  0.7336592  0.2487303  0.9813338

 Al 
  0.9845626  0.4857940  0.9802002

 Al 
  0.9824056  0.7479506  0.2501374

 Al 
  0.2532189  0.5052423  0.2570368

 Al 
  0.2331531  0.7642976  0.0208455

 Al 
  0.9934434  0.9841456  0.5183778

 Al 
  0.0015878  0.2469618  0.7504727

 Al 
  0.2565207  0.0162418  0.7575244

 Al 
  0.2575689  0.2651861  0.5129276

 Al 
  0.0072831  0.4904237  0.4937998

 Al 
  0.0138001  0.7410920  0.7594005

 Al 
  0.2677256  0.4921662  0.7480038

 Al 
  0.2516905  0.7562831  0.5006881

 Al 
  0.5135847  0.5053364  0.9988045

 Al 
  0.4917182  0.7434434  0.2415796

 Al 
  0.7505470  0.5168544  0.2467415

 Al 
  0.7483021  0.7305455  0.9866863

 Al 
  0.5003750  0.0023402  0.5108200

 Al 
  0.5189409  0.2407071  0.7363051

 Al 
  0.7353720  0.9973442  0.7334129

 Al 
  0.7592545  0.2455299  0.4815603

 Al 
  0.5376355  0.5027239  0.4996869

 Al 
  0.4842186  0.7647295  0.7632642

 Al 
  0.7638248  0.5130761  0.7433803

 Al 
  0.7444198  0.7547003  0.5104624

