32 
charge = 0 
 Al 
  0.9714853  0.0012017  0.9979456

 Al 
  0.9923383  0.2423605  0.2484493

 Al 
  0.2406614  0.0078350  0.2675437

 Al 
  0.2623744  0.2627444  0.0034256

 Al 
  0.5077174  0.9890896  0.0057175

 Al 
  0.5019987  0.2481437  0.2477464

 Al 
  0.7485397  0.9853015  0.2479840

 Al 
  0.7363385  0.2479766  0.9798735

 Al 
  0.9857878  0.4808438  0.9828437

 Al 
  0.9812559  0.7480607  0.2474667

 Al 
  0.2547671  0.5042114  0.2588288

 Al 
  0.2309490  0.7649448  0.0191946

 Al 
  0.9919583  0.9852025  0.5200906

 Al 
  0.9975806  0.2447738  0.7518650

 Al 
  0.2593139  0.0197725  0.7574130

 Al 
  0.2561136  0.2674137  0.5083152

 Al 
  0.0040765  0.4968813  0.4936699

 Al 
  0.0158519  0.7435300  0.7586233

 Al 
  0.2701834  0.4927194  0.7460014

 Al 
  0.2524528  0.7596010  0.5061235

 Al 
  0.5176699  0.5006658  0.9990062

 Al 
  0.4888607  0.7407665  0.2460955

 Al 
  0.7515296  0.5173642  0.2412529

 Al 
  0.7438753  0.7309056  0.9870155

 Al 
  0.4954990  0.0004232  0.5096097

 Al 
  0.5178568  0.2443666  0.7374783

 Al 
  0.7388260  0.9977427  0.7378063

 Al 
  0.7608014  0.2424014  0.4806396

 Al 
  0.5310814  0.5009529  0.5012475

 Al 
  0.4841815  0.7637110  0.7610490

 Al 
  0.7636355  0.5133867  0.7396725

 Al 
  0.7444409  0.7547027  0.5100057

