32 
charge = 0 
 Al 
  0.9636577  0.0043834  0.9907232

 Al 
  0.9909695  0.2389040  0.2483961

 Al 
  0.2352247  0.0066618  0.2605057

 Al 
  0.2587669  0.2616851  0.9983429

 Al 
  0.5144597  0.9912220  0.0079328

 Al 
  0.4973194  0.2547943  0.2617544

 Al 
  0.7460559  0.9827509  0.2464804

 Al 
  0.7319019  0.2496126  0.9837706

 Al 
  0.9848052  0.4904819  0.9793414

 Al 
  0.9843993  0.7480063  0.2528390

 Al 
  0.2517264  0.5058326  0.2552337

 Al 
  0.2353856  0.7633174  0.0214717

 Al 
  0.9953641  0.9837879  0.5161787

 Al 
  0.0049106  0.2487785  0.7488256

 Al 
  0.2534008  0.0124239  0.7578424

 Al 
  0.2590268  0.2623335  0.5160314

 Al 
  0.0098300  0.4854327  0.4942862

 Al 
  0.0118942  0.7393396  0.7594971

 Al 
  0.2651960  0.4929088  0.7501238

 Al 
  0.2511843  0.7527103  0.4962093

 Al 
  0.5087793  0.5089043  0.9981672

 Al 
  0.4947490  0.7465695  0.2384424

 Al 
  0.7497884  0.5148470  0.2516546

 Al 
  0.7526075  0.7319898  0.9866467

 Al 
  0.5042151  0.0036211  0.5102421

 Al 
  0.5191513  0.2388681  0.7356864

 Al 
  0.7336567  0.9966734  0.7308042

 Al 
  0.7575986  0.2483194  0.4830318

 Al 
  0.5415697  0.5040580  0.4985137

 Al 
  0.4845589  0.7645748  0.7645921

 Al 
  0.7631454  0.5116294  0.7460905

 Al 
  0.7447008  0.7545777  0.5103386

