32 
charge = 0 
 Al 
  0.9640340  0.0042226  0.9912257

 Al 
  0.9910190  0.2390872  0.2484852

 Al 
  0.2355329  0.0067262  0.2609945

 Al 
  0.2590280  0.2618360  0.9986325

 Al 
  0.5141367  0.9909720  0.0077954

 Al 
  0.4976004  0.2543698  0.2608745

 Al 
  0.7462898  0.9828115  0.2464952

 Al 
  0.7321036  0.2494678  0.9833610

 Al 
  0.9846777  0.4898359  0.9793488

 Al 
  0.9840651  0.7479902  0.2524491

 Al 
  0.2519355  0.5057782  0.2554948

 Al 
  0.2350700  0.7634758  0.0214470

 Al 
  0.9950634  0.9837978  0.5165202

 Al 
  0.0044800  0.2485409  0.7490731

 Al 
  0.2538661  0.0129956  0.7577867

 Al 
  0.2588152  0.2627803  0.5156750

 Al 
  0.0095032  0.4860613  0.4941958

 Al 
  0.0121516  0.7395438  0.7595354

 Al 
  0.2655599  0.4927219  0.7498168

 Al 
  0.2512376  0.7532362  0.4967947

 Al 
  0.5095032  0.5084550  0.9982786

 Al 
  0.4943035  0.7461004  0.2388062

 Al 
  0.7498762  0.5152158  0.2510037

 Al 
  0.7520086  0.7316816  0.9866281

 Al 
  0.5037399  0.0034850  0.5104376

 Al 
  0.5191773  0.2390191  0.7357346

 Al 
  0.7337867  0.9967848  0.7310665

 Al 
  0.7578313  0.2479456  0.4827892

 Al 
  0.5411725  0.5038872  0.4986436

 Al 
  0.4844921  0.7646651  0.7644560

 Al 
  0.7633026  0.5119054  0.7457663

 Al 
  0.7446364  0.7546025  0.5103881

