32 
charge = 0 
 Al 
  0.9644349  0.0040543  0.9917281

 Al 
  0.9910735  0.2392778  0.2485607

 Al 
  0.2358522  0.0067930  0.2614833

 Al 
  0.2592879  0.2619759  0.9989320

 Al 
  0.5137902  0.9907393  0.0076518

 Al 
  0.4978862  0.2539404  0.2599785

 Al 
  0.7465187  0.9828907  0.2465237

 Al 
  0.7323202  0.2493305  0.9829724

 Al 
  0.9845812  0.4891825  0.9793946

 Al 
  0.9837471  0.7479766  0.2520618

 Al 
  0.2521459  0.5057138  0.2557534

 Al 
  0.2347545  0.7636293  0.0214012

 Al 
  0.9947725  0.9838226  0.5168519

 Al 
  0.0040357  0.2482971  0.7493156

 Al 
  0.2543240  0.0135563  0.7577335

 Al 
  0.2586048  0.2632122  0.5152913

 Al 
  0.0091642  0.4867160  0.4941129

 Al 
  0.0124128  0.7397629  0.7595552

 Al 
  0.2659225  0.4925622  0.7495112

 Al 
  0.2512970  0.7537560  0.4973949

 Al 
  0.5102136  0.5079872  0.9983837

 Al 
  0.4938642  0.7456388  0.2391973

 Al 
  0.7499715  0.5155574  0.2503341

 Al 
  0.7514046  0.7314081  0.9866182

 Al 
  0.5032399  0.0033328  0.5105960

 Al 
  0.5191847  0.2392060  0.7357977

 Al 
  0.7339562  0.9968912  0.7313635

 Al 
  0.7580652  0.2475645  0.4825590

 Al 
  0.5407208  0.5037114  0.4987872

 Al 
  0.4844327  0.7647344  0.7643037

 Al 
  0.7634387  0.5121578  0.7454223

 Al 
  0.7445807  0.7546260  0.5104277

