32 
charge = 0 
 Al 
  0.9653173  0.0036855  0.9927355

 Al 
  0.9912022  0.2396899  0.2486733

 Al 
  0.2365242  0.0069353  0.2624635

 Al 
  0.2598089  0.2622197  0.9995681

 Al 
  0.5130266  0.9903198  0.0073511

 Al 
  0.4984778  0.2530605  0.2581308

 Al 
  0.7469519  0.9831036  0.2466252

 Al 
  0.7328028  0.2490755  0.9822583

 Al 
  0.9844822  0.4878521  0.9796025

 Al 
  0.9831617  0.7479580  0.2512908

 Al 
  0.2525704  0.5055542  0.2562670

 Al 
  0.2341171  0.7639152  0.0212440

 Al 
  0.9942156  0.9839104  0.5174880

 Al 
  0.0031026  0.2477872  0.7497896

 Al 
  0.2552200  0.0146503  0.7576382

 Al 
  0.2581890  0.2640377  0.5144374

 Al 
  0.0084513  0.4881083  0.4939669

 Al 
  0.0129536  0.7402480  0.7595428

 Al 
  0.2666440  0.4923234  0.7489035

 Al 
  0.2514368  0.7547795  0.4986523

 Al 
  0.5115972  0.5069922  0.9985743

 Al 
  0.4929966  0.7447391  0.2400636

 Al 
  0.7501844  0.5161601  0.2489456

 Al 
  0.7501794  0.7309589  0.9866244

 Al 
  0.5021670  0.0029813  0.5107977

 Al 
  0.5191426  0.2396923  0.7359623

 Al 
  0.7344092  0.9970880  0.7320714

 Al 
  0.7585392  0.2467761  0.4821284

 Al 
  0.5396527  0.5033402  0.4991139

 Al 
  0.4843300  0.7648025  0.7639424

 Al 
  0.7636516  0.5125934  0.7446711

 Al 
  0.7444953  0.7546631  0.5104747

