32 
charge = 0 
 Al 
  0.9616900  0.0052770  0.9870959

 Al 
  0.9907517  0.2378570  0.2473962

 Al 
  0.2333201  0.0062757  0.2569551

 Al 
  0.2568685  0.2602730  0.9966029

 Al 
  0.5161230  0.9935176  0.0087273

 Al 
  0.4954099  0.2576952  0.2675499

 Al 
  0.7442441  0.9828387  0.2468207

 Al 
  0.7308710  0.2509430  0.9873496

 Al 
  0.9866207  0.4948666  0.9804391

 Al 
  0.9872494  0.7481684  0.2556990

 Al 
  0.2502351  0.5058896  0.2532746

 Al 
  0.2376058  0.7619969  0.0210113

 Al 
  0.9977736  0.9840948  0.5134610

 Al 
  0.0075689  0.2502871  0.7469803

 Al 
  0.2498614  0.0079464  0.7583313

 Al 
  0.2606133  0.2587322  0.5178382

 Al 
  0.0118732  0.4816457  0.4951215

 Al 
  0.0102148  0.7383471  0.7585986

 Al 
  0.2625526  0.4950262  0.7523464

 Al 
  0.2510173  0.7487612  0.4924967

 Al 
  0.5032672  0.5116418  0.9972279

 Al 
  0.4981090  0.7501077  0.2366207

 Al 
  0.7494307  0.5115155  0.2557312

 Al 
  0.7566866  0.7350688  0.9870687

 Al 
  0.5068945  0.0041087  0.5077323

 Al 
  0.5184125  0.2388199  0.7357717

 Al 
  0.7338325  0.9957502  0.7299713

 Al 
  0.7560740  0.2507339  0.4851059

 Al 
  0.5427801  0.5051953  0.4980595

 Al 
  0.4852148  0.7633125  0.7650438

 Al 
  0.7613881  0.5089934  0.7478689

 Al 
  0.7454445  0.7543092  0.5097025

