32 
charge = 0 
 Al 
  0.9609883  0.0060925  0.9813202

 Al 
  0.9906663  0.2371380  0.2446884

 Al 
  0.2313561  0.0058524  0.2509987

 Al 
  0.2537449  0.2569601  0.9949037

 Al 
  0.5165573  0.9988614  0.0089562

 Al 
  0.4925449  0.2618967  0.2748490

 Al 
  0.7415017  0.9847483  0.2488342

 Al 
  0.7304440  0.2543562  0.9951079

 Al 
  0.9922677  0.5008217  0.9859116

 Al 
  0.9929211  0.7484753  0.2603572

 Al 
  0.2478838  0.5047114  0.2497376

 Al 
  0.2408829  0.7594240  0.0181748

 Al 
  0.0023340  0.9858349  0.5082632

 Al 
  0.0102371  0.2521286  0.7440919

 Al 
  0.2437181  0.9994023  0.7593015

 Al 
  0.2632196  0.2517747  0.5185659

 Al 
  0.0142196  0.4778353  0.4969469

 Al 
  0.0080937  0.7383038  0.7548649

 Al 
  0.2581902  0.5006435  0.7556470

 Al 
  0.2516274  0.7420301  0.4881442

 Al 
  0.4939298  0.5145649  0.9956661

 Al 
  0.5039466  0.7558797  0.2362494

 Al 
  0.7500099  0.5044466  0.2597173

 Al 
  0.7620217  0.7421972  0.9888050

 Al 
  0.5088114  0.0032152  0.5005322

 Al 
  0.5155326  0.2417120  0.7375068

 Al 
  0.7374202  0.9941043  0.7317917

 Al 
  0.7544490  0.2534454  0.4895834

 Al 
  0.5390723  0.5070937  0.4992315

 Al 
  0.4870192  0.7596493  0.7640451

 Al 
  0.7566952  0.5028204  0.7493812

 Al 
  0.7476932  0.7535778  0.5078226

