32 
charge = 0 
 Al 
  0.9613645  0.0062806  0.9796198

 Al 
  0.9906713  0.2371615  0.2436476

 Al 
  0.2310368  0.0057411  0.2490904

 Al 
  0.2527561  0.2557213  0.9945968

 Al 
  0.5161799  0.0008490  0.0087124

 Al 
  0.4917009  0.2630835  0.2765593

 Al 
  0.7408544  0.9857482  0.2497512

 Al 
  0.7305591  0.2557460  0.9978986

 Al 
  0.9944904  0.5023897  0.9883372

 Al 
  0.9947973  0.7485471  0.2617519

 Al 
  0.2471635  0.5040295  0.2485545

 Al 
  0.2417999  0.7585813  0.0168581

 Al 
  0.0038501  0.9866455  0.5064885

 Al 
  0.0106765  0.2525803  0.7433172

 Al 
  0.2417900  0.9964767  0.7596134

 Al 
  0.2639498  0.2494208  0.5183976

 Al 
  0.0147555  0.4771348  0.4975632

 Al 
  0.0075429  0.7385934  0.7531991

 Al 
  0.2568041  0.5027338  0.7565121

 Al 
  0.2520556  0.7399423  0.4871652

 Al 
  0.4911155  0.5151502  0.9952824

 Al 
  0.5057906  0.7575392  0.2366677

 Al 
  0.7504628  0.5020370  0.2603052

 Al 
  0.7632914  0.7446760  0.9895748

 Al 
  0.5089278  0.0025667  0.4978033

 Al 
  0.5143273  0.2431105  0.7384201

 Al 
  0.7390698  0.9936377  0.7329154

 Al 
  0.7541792  0.2539614  0.4912282

 Al 
  0.5366814  0.5077830  0.5000285

 Al 
  0.4877952  0.7582842  0.7633545

 Al 
  0.7549416  0.5005767  0.7497203

 Al 
  0.7486214  0.7532709  0.5070640

