32 
charge = 0 
 Al 
  0.9617717  0.0064019  0.9785790

 Al 
  0.9906824  0.2372457  0.2429434

 Al 
  0.2309193  0.0056693  0.2478565

 Al 
  0.2521187  0.2548785  0.9944483

 Al 
  0.5158049  0.0021905  0.0084674

 Al 
  0.4911799  0.2638075  0.2774900

 Al 
  0.7405265  0.9864957  0.2503985

 Al 
  0.7306928  0.2567212  0.9997636

 Al 
  0.9959952  0.5033216  0.9900463

 Al 
  0.9960014  0.7485805  0.2626132

 Al 
  0.2467019  0.5035073  0.2477823

 Al 
  0.2423531  0.7580466  0.0159151

 Al 
  0.0048339  0.9872333  0.5053178

 Al 
  0.0108584  0.2528390  0.7428741

 Al 
  0.2405698  0.9945485  0.7598064

 Al 
  0.2643731  0.2478788  0.5182058

 Al 
  0.0150525  0.4768068  0.4979543

 Al 
  0.0072088  0.7388397  0.7520160

 Al 
  0.2559069  0.5041248  0.7570046

 Al 
  0.2523996  0.7386305  0.4866380

 Al 
  0.4893768  0.5154374  0.9950832

 Al 
  0.5069601  0.7585417  0.2370625

 Al 
  0.7508168  0.5004752  0.2605180

 Al 
  0.7639845  0.7462861  0.9901218

 Al 
  0.5088906  0.0020568  0.4959841

 Al 
  0.5134894  0.2440993  0.7391020

 Al 
  0.7402134  0.9933642  0.7337384

 Al 
  0.7540679  0.2541978  0.4923444

 Al 
  0.5348535  0.5082595  0.5006386

 Al 
  0.4883570  0.7573808  0.7628162

 Al 
  0.7537721  0.4990854  0.7499394

 Al 
  0.7492674  0.7530506  0.5065368

