32 
charge = 0 
 Al 
  0.9658915  0.0071667  0.9750074

 Al 
  0.9909113  0.2384956  0.2396094

 Al 
  0.2316358  0.0052386  0.2423383

 Al 
  0.2492513  0.2506361  0.9942119

 Al 
  0.5125068  0.0087273  0.0062757

 Al 
  0.4893025  0.2664955  0.2792733

 Al 
  0.7405871  0.9911886  0.2537077

 Al 
  0.7319365  0.2619462  0.0085850

 Al 
  0.0031174  0.5066086  0.9989778

 Al 
  0.0010705  0.7484803  0.2657455

 Al 
  0.2446574  0.5001510  0.2443938

 Al 
  0.2443097  0.7559861  0.0107557

 Al 
  0.0091753  0.9906576  0.4998614

 Al 
  0.0104562  0.2535394  0.7418247

 Al 
  0.2357074  0.9857396  0.7603745

 Al 
  0.2653408  0.2408334  0.5165140

 Al 
  0.0157505  0.4768464  0.4994171

 Al 
  0.0057151  0.7403804  0.7456314

 Al 
  0.2517586  0.5103609  0.7582434

 Al 
  0.2548339  0.7335157  0.4855465

 Al 
  0.4830194  0.5155104  0.9949371

 Al 
  0.5116715  0.7618732  0.2401304

 Al 
  0.7529924  0.4938171  0.2597557

 Al 
  0.7654077  0.7531038  0.9931117

 Al 
  0.5074378  0.9986832  0.4878261

 Al 
  0.5091134  0.2491857  0.7432949

 Al 
  0.7456871  0.9926254  0.7380971

 Al 
  0.7542189  0.2540283  0.4979209

 Al 
  0.5235941  0.5107643  0.5042572

 Al 
  0.4918395  0.7534355  0.7592990

 Al 
  0.7484654  0.4923073  0.7512883

 Al 
  0.7526385  0.7516719  0.5037894

