32 
charge = 0 
 Al 
  0.9626009  0.0065875  0.9772214

 Al 
  0.9907121  0.2374660  0.2419162

 Al 
  0.2308933  0.0055591  0.2461215

 Al 
  0.2512202  0.2536347  0.9942998

 Al 
  0.5150859  0.0041508  0.0079922

 Al 
  0.4904893  0.2647629  0.2785271

 Al 
  0.7402245  0.9877011  0.2513725

 Al 
  0.7309613  0.2582026  0.0024603

 Al 
  0.9981870  0.5045196  0.9926278

 Al 
  0.9976709  0.7486016  0.2637530

 Al 
  0.2460584  0.5026521  0.2466920

 Al 
  0.2430721  0.7573214  0.0144646

 Al 
  0.0062188  0.9881516  0.5036409

 Al 
  0.0109648  0.2531496  0.7423482

 Al 
  0.2389077  0.9917987  0.7600540

 Al 
  0.2648767  0.2456859  0.5178271

 Al 
  0.0153953  0.4765259  0.4984815

 Al 
  0.0067571  0.7392555  0.7502091

 Al 
  0.2546334  0.5061098  0.7575924

 Al 
  0.2529887  0.7368558  0.4860465

 Al 
  0.4870761  0.5157059  0.9948839

 Al 
  0.5085565  0.7598287  0.2377840

 Al 
  0.7513947  0.4982934  0.2605923

 Al 
  0.7647678  0.7485310  0.9909596

 Al 
  0.5086815  0.0012091  0.4933828

 Al 
  0.5122321  0.2455906  0.7401936

 Al 
  0.7418952  0.9930300  0.7350069

 Al 
  0.7539973  0.2543896  0.4939892

 Al 
  0.5318920  0.5089773  0.5016200

 Al 
  0.4892518  0.7561037  0.7619252

 Al 
  0.7520989  0.4969506  0.7502698

 Al 
  0.7502376  0.7526991  0.5057460

