32 
charge = 0 
 Al 
  0.9649324  0.0070046  0.9753700

 Al 
  0.9908396  0.2381862  0.2401181

 Al 
  0.2313475  0.0053252  0.2431748

 Al 
  0.2496906  0.2513403  0.9942057

 Al 
  0.5132258  0.0076778  0.0067534

 Al 
  0.4895079  0.2661650  0.2793389

 Al 
  0.7403408  0.9902851  0.2531731

 Al 
  0.7316680  0.2610502  0.0072076

 Al 
  0.0020247  0.5062163  0.9974877

 Al 
  0.0003614  0.7485347  0.2653879

 Al 
  0.2449681  0.5007970  0.2448802

 Al 
  0.2440845  0.7562361  0.0116467

 Al 
  0.0085355  0.9900277  0.5007116

 Al 
  0.0106740  0.2534974  0.7418395

 Al 
  0.2363385  0.9870749  0.7603460

 Al 
  0.2653445  0.2419138  0.5168692

 Al 
  0.0157319  0.4766385  0.4992500

 Al 
  0.0059688  0.7401131  0.7467291

 Al 
  0.2524145  0.5094537  0.7581964

 Al 
  0.2543438  0.7341629  0.4855440

 Al 
  0.4837595  0.5156725  0.9948493

 Al 
  0.5110452  0.7615440  0.2395092

 Al 
  0.7525989  0.4947478  0.2600663

 Al 
  0.7654262  0.7521595  0.9925907

 Al 
  0.5078276  0.9993391  0.4890092

 Al 
  0.5098584  0.2483565  0.7425016

 Al 
  0.7448530  0.9926625  0.7373892

 Al 
  0.7541236  0.2542250  0.4970039

 Al 
  0.5256794  0.5103423  0.5036162

 Al 
  0.4911626  0.7539949  0.7599772

 Al 
  0.7492513  0.4933122  0.7510049

 Al 
  0.7520692  0.7519430  0.5042535

