32 
charge = 0 
 Al 
  0.9640624  0.0068549  0.9758564

 Al 
  0.9907851  0.2379103  0.2406737

 Al 
  0.2311259  0.0054069  0.2440795

 Al 
  0.2501609  0.2520717  0.9942144

 Al 
  0.5138978  0.0065677  0.0072014

 Al 
  0.4897740  0.2657690  0.2792448

 Al 
  0.7401960  0.9894040  0.2526038

 Al 
  0.7314143  0.2601257  0.0057312

 Al 
  0.0008391  0.5057448  0.9959309

 Al 
  0.9995631  0.7485743  0.2649399

 Al 
  0.2453035  0.5014306  0.2454247

 Al 
  0.2438072  0.7565418  0.0125625

 Al 
  0.0078325  0.9894003  0.5016212

 Al 
  0.0108361  0.2534206  0.7419299

 Al 
  0.2370798  0.9885253  0.7602829

 Al 
  0.2652703  0.2430771  0.5172095

 Al 
  0.0156675  0.4765111  0.4990397

 Al 
  0.0062225  0.7398334  0.7478578

 Al 
  0.2531075  0.5084427  0.7580751

 Al 
  0.2538711  0.7349327  0.4856195

 Al 
  0.4846753  0.5157628  0.9948097

 Al 
  0.5103225  0.7610985  0.2389065

 Al 
  0.7521991  0.4958022  0.2603200

 Al 
  0.7653322  0.7510853  0.9920586

 Al 
  0.5081679  0.9999802  0.4903284

 Al 
  0.5106245  0.2474803  0.7417195

 Al 
  0.7439421  0.9927405  0.7366356

 Al 
  0.7540505  0.2543537  0.4960460

 Al 
  0.5277635  0.5099017  0.5029590

 Al 
  0.4905079  0.7546248  0.7606430

 Al 
  0.7501188  0.4944211  0.7507438

 Al 
  0.7514801  0.7522041  0.5047337

