32 
charge = 0 
 Al 
  0.9687206  0.0076370  0.9746164

 Al 
  0.9911848  0.2394114  0.2385154

 Al 
  0.2326358  0.0049861  0.2404609

 Al 
  0.2482563  0.2489617  0.9942589

 Al 
  0.5104908  0.0111529  0.0049478

 Al 
  0.4890364  0.2670870  0.2784701

 Al 
  0.7416390  0.9935857  0.2549057

 Al 
  0.7326642  0.2640995  0.0116715

 Al 
  0.0054948  0.5073165  0.0024714

 Al 
  0.0025172  0.7482724  0.2662764

 Al 
  0.2439632  0.4984568  0.2434162

 Al 
  0.2446896  0.7555690  0.0086110

 Al 
  0.0105515  0.9922764  0.4979370

 Al 
  0.0096926  0.2535073  0.7420945

 Al 
  0.2345676  0.9828276  0.7602693

 Al 
  0.2649943  0.2384115  0.5155574

 Al 
  0.0156205  0.4776855  0.4996510

 Al 
  0.0050183  0.7409881  0.7429756

 Al 
  0.2502265  0.5122271  0.7580776

 Al 
  0.2561383  0.7323672  0.4858509

 Al 
  0.4818400  0.5148050  0.9953567

 Al 
  0.5128682  0.7622259  0.2417504

 Al 
  0.7539491  0.4919719  0.2588053

 Al 
  0.7649225  0.7549775  0.9944025

 Al 
  0.5062460  0.9969779  0.4854129

 Al 
  0.5072892  0.2510742  0.7453653

 Al 
  0.7474704  0.9927095  0.7396701

 Al 
  0.7545159  0.2532684  0.5000792

 Al 
  0.5183221  0.5117408  0.5057893

 Al 
  0.4936686  0.7523118  0.7575306

 Al 
  0.7467984  0.4901948  0.7521175

 Al 
  0.7540048  0.7509195  0.5026843

