32 
charge = 0 
 Al 
  0.9675103  0.0074365  0.9746869

 Al 
  0.9910561  0.2390191  0.2389238

 Al 
  0.2321865  0.0050938  0.2411824

 Al 
  0.2486412  0.2496213  0.9942367

 Al 
  0.5113373  0.0102099  0.0055022

 Al 
  0.4891008  0.2668878  0.2788958

 Al 
  0.7411440  0.9925981  0.2544503

 Al 
  0.7323623  0.2632506  0.0104896

 Al 
  0.0045988  0.5070739  0.0011064

 Al 
  0.0019875  0.7483677  0.2661230

 Al 
  0.2442292  0.4991498  0.2437689

 Al 
  0.2445646  0.7557015  0.0094587

 Al 
  0.0100342  0.9916180  0.4986783

 Al 
  0.0100342  0.2535419  0.7419348

 Al 
  0.2349525  0.9839278  0.7603423

 Al 
  0.2651898  0.2393409  0.5159522

 Al 
  0.0157022  0.4772957  0.4995879

 Al 
  0.0053129  0.7407554  0.7440288

 Al 
  0.2508267  0.5115452  0.7581902

 Al 
  0.2556024  0.7327496  0.4856814

 Al 
  0.4822051  0.5151379  0.9951549

 Al 
  0.5124474  0.7621615  0.2410920

 Al 
  0.7535704  0.4926328  0.2592099

 Al 
  0.7651886  0.7543042  0.9938852

 Al 
  0.5067608  0.9976734  0.4862903

 Al 
  0.5080182  0.2503465  0.7445188

 Al 
  0.7468046  0.9926464  0.7390736

 Al 
  0.7543909  0.2536174  0.4992327

 Al 
  0.5204495  0.5113633  0.5051879

 Al 
  0.4929075  0.7527177  0.7582521

 Al 
  0.7474184  0.4909757  0.7517635

 Al 
  0.7534639  0.7512363  0.5031199

