32 
charge = 0 
 Al 
  0.9693716  0.0077434  0.9746238

 Al 
  0.9912603  0.2396218  0.2383236

 Al 
  0.2328870  0.0049280  0.2401106

 Al 
  0.2480682  0.2486325  0.9942701

 Al 
  0.5100465  0.0116145  0.0046569

 Al 
  0.4890241  0.2671687  0.2782040

 Al 
  0.7419249  0.9940981  0.2551235

 Al 
  0.7328202  0.2645203  0.0122407

 Al 
  0.0059193  0.5074204  0.0031422

 Al 
  0.0027610  0.7482179  0.2663247

 Al 
  0.2438357  0.4980991  0.2432590

 Al 
  0.2447391  0.7555171  0.0081902

 Al 
  0.0107977  0.9926142  0.4975781

 Al 
  0.0095032  0.2534788  0.7421996

 Al 
  0.2344092  0.9823066  0.7602148

 Al 
  0.2648668  0.2379610  0.5153520

 Al 
  0.0155636  0.4779070  0.4996683

 Al 
  0.0048599  0.7410995  0.7424496

 Al 
  0.2499295  0.5125377  0.7579996

 Al 
  0.2564143  0.7322113  0.4859574

 Al 
  0.4817064  0.5146144  0.9954742

 Al 
  0.5130538  0.7622197  0.2420858

 Al 
  0.7541359  0.4916774  0.2585936

 Al 
  0.7647555  0.7552807  0.9946649

 Al 
  0.5059688  0.9966215  0.4850144

 Al 
  0.5069204  0.2514269  0.7458010

 Al 
  0.7477835  0.9927565  0.7399547

 Al 
  0.7545815  0.2530704  0.5004987

 Al 
  0.5172442  0.5119214  0.5060863

 Al 
  0.4940659  0.7521298  0.7571605

 Al 
  0.7465088  0.4898334  0.7523068

 Al 
  0.7542745  0.7507512  0.5024689

