32 
charge = 0 
 Al 
  0.9681018  0.0075343  0.9746374

 Al 
  0.9911168  0.2392109  0.2387147

 Al 
  0.2324031  0.0050418  0.2408173

 Al 
  0.2484481  0.2492909  0.9942478

 Al 
  0.5109215  0.0106851  0.0052287

 Al 
  0.4890612  0.2669930  0.2787003

 Al 
  0.7413791  0.9930857  0.2546817

 Al 
  0.7325120  0.2636763  0.0110886

 Al 
  0.0050554  0.5072001  0.0017932

 Al 
  0.0022598  0.7483219  0.2662096

 Al 
  0.2440944  0.4988070  0.2435857

 Al 
  0.2446315  0.7556297  0.0090342

 Al 
  0.0102978  0.9919447  0.4983045

 Al 
  0.0098696  0.2535283  0.7420053

 Al 
  0.2347483  0.9833684  0.7603114

 Al 
  0.2651020  0.2388706  0.5157579

 Al 
  0.0156663  0.4774813  0.4996238

 Al 
  0.0051693  0.7408742  0.7435016

 Al 
  0.2505247  0.5118955  0.7581407

 Al 
  0.2558685  0.7325467  0.4857594

 Al 
  0.4820058  0.5149795  0.9952502

 Al 
  0.5126665  0.7622061  0.2414200

 Al 
  0.7537610  0.4922900  0.2590107

 Al 
  0.7650673  0.7546532  0.9941426

 Al 
  0.5065096  0.9973281  0.4858373

 Al 
  0.5076543  0.2507153  0.7449384

 Al 
  0.7471449  0.9926724  0.7393768

 Al 
  0.7544527  0.2534503  0.4996572

 Al 
  0.5193901  0.5115551  0.5054911

 Al 
  0.4932825  0.7525085  0.7578944

 Al 
  0.7471016  0.4905760  0.7519355

 Al 
  0.7537350  0.7510804  0.5029021

