32 
charge = 0 
 Al 
  0.9802312  0.0093213  0.9771410

 Al 
  0.9931328  0.2430449  0.2367061

 Al 
  0.2375390  0.0038934  0.2360477

 Al 
  0.2457007  0.2445003  0.9942899

 Al 
  0.5031793  0.0170400  0.0003242

 Al 
  0.4900290  0.2673358  0.2721858

 Al 
  0.7475113  0.0017115  0.2571977

 Al 
  0.7351765  0.2695151  0.0183518

 Al 
  0.0100032  0.5080305  0.0110168

 Al 
  0.0050183  0.7471796  0.2653606

 Al 
  0.2425387  0.4930090  0.2424125

 Al 
  0.2449272  0.7555096  0.0029479

 Al 
  0.0133087  0.9974853  0.4934521

 Al 
  0.0061791  0.2526323  0.7449173

 Al 
  0.2343250  0.9771410  0.7582929

 Al 
  0.2616529  0.2328610  0.5122766

 Al 
  0.0139337  0.4821729  0.4991585

 Al 
  0.0019541  0.7421972  0.7356505

 Al 
  0.2461735  0.5148891  0.7559688

 Al 
  0.2600960  0.7322113  0.4883422

 Al 
  0.4823833  0.5109116  0.9979197

 Al 
  0.5142010  0.7601183  0.2464420

 Al 
  0.7563413  0.4900129  0.2558178

 Al 
  0.7609388  0.7575454  0.9983776

 Al 
  0.5012722  0.9917826  0.4821383

 Al 
  0.5016868  0.2552745  0.7519776

 Al 
  0.7507834  0.9942565  0.7428271

 Al 
  0.7552844  0.2494270  0.5057386

 Al 
  0.5026669  0.5134820  0.5095329

 Al 
  0.5002190  0.7507883  0.7519838

 Al 
  0.7438765  0.4868274  0.7554143

 Al 
  0.7577385  0.7478937  0.4997884

