32 
charge = 0 
 Al 
  0.9749344  0.0086085  0.9755086

 Al 
  0.9920883  0.2413940  0.2372209

 Al 
  0.2351913  0.0044131  0.2377444

 Al 
  0.2467440  0.2462873  0.9943233

 Al 
  0.5064217  0.0147740  0.0023353

 Al 
  0.4893409  0.2674558  0.2753564

 Al 
  0.7446772  0.9981622  0.2564588

 Al 
  0.7340639  0.2674434  0.0159435

 Al 
  0.0085144  0.5078969  0.0077434

 Al 
  0.0041891  0.7477018  0.2661254

 Al 
  0.2430177  0.4953369  0.2425127

 Al 
  0.2449210  0.7553970  0.0052027

 Al 
  0.0123385  0.9952329  0.4951599

 Al 
  0.0078189  0.2530964  0.7434422

 Al 
  0.2339303  0.9790679  0.7594315

 Al 
  0.2633979  0.2349550  0.5137233

 Al 
  0.0148507  0.4800059  0.4995297

 Al 
  0.0034392  0.7417900  0.7386379

 Al 
  0.2478108  0.5142159  0.7570591

 Al 
  0.2584909  0.7317744  0.4871046

 Al 
  0.4816098  0.5127840  0.9966487

 Al 
  0.5139473  0.7614697  0.2445547

 Al 
  0.7554292  0.4902666  0.2569935

 Al 
  0.7629412  0.7568759  0.9966623

 Al 
  0.5035691  0.9939359  0.4829142

 Al 
  0.5041174  0.2537362  0.7491609

 Al 
  0.7496683  0.9933988  0.7417306

 Al 
  0.7550295  0.2512438  0.5034639

 Al 
  0.5091901  0.5130105  0.5081122

 Al 
  0.4972984  0.7511683  0.7543302

 Al 
  0.7447998  0.4877840  0.7539194

 Al 
  0.7562188  0.7493107  0.5009455

