32 
charge = 0 
 Al 
  0.9814316  0.0094649  0.9775778

 Al 
  0.9933988  0.2434149  0.2366380

 Al 
  0.2380847  0.0037709  0.2357074

 Al 
  0.2454767  0.2441340  0.9942726

 Al 
  0.5024665  0.0174917  0.9998899

 Al 
  0.4902158  0.2672739  0.2714383

 Al 
  0.7481610  0.0024875  0.2573189

 Al 
  0.7354265  0.2699186  0.0188048

 Al 
  0.0102594  0.5080404  0.0116653

 Al 
  0.0051730  0.7470608  0.2651403

 Al 
  0.2424595  0.4925090  0.2424447

 Al 
  0.2449210  0.7555455  0.0024850

 Al 
  0.0134907  0.9979778  0.4931093

 Al 
  0.0058054  0.2525234  0.7452725

 Al 
  0.2344859  0.9767982  0.7579934

 Al 
  0.2612321  0.2324489  0.5119549

 Al 
  0.0137035  0.4826766  0.4990582

 Al 
  0.0016002  0.7422689  0.7350255

 Al 
  0.2458307  0.5149658  0.7557114

 Al 
  0.2604178  0.7323808  0.4886280

 Al 
  0.4826160  0.5104809  0.9982204

 Al 
  0.5142146  0.7597619  0.2468244

 Al 
  0.7565195  0.4900500  0.2555925

 Al 
  0.7604698  0.7576370  0.9987562

 Al 
  0.5007512  0.9913333  0.4820591

 Al 
  0.5011435  0.2555715  0.7525791

 Al 
  0.7509888  0.9944743  0.7430325

 Al 
  0.7553228  0.2490124  0.5062138

 Al 
  0.5012834  0.5135278  0.5098126

 Al 
  0.5008688  0.7507425  0.7514838

 Al 
  0.7437231  0.4866925  0.7557460

 Al 
  0.7580565  0.7475632  0.4995483

