32 
charge = 0 
 Al 
  0.9779701  0.0090330  0.9763799

 Al 
  0.9926600  0.2423444  0.2368794

 Al 
  0.2365229  0.0041198  0.2367296

 Al 
  0.2461326  0.2452255  0.9943134

 Al 
  0.5045443  0.0161316  0.0011645

 Al 
  0.4897047  0.2674199  0.2735706

 Al 
  0.7462910  0.0002228  0.2569266

 Al 
  0.7347037  0.2686934  0.0174137

 Al 
  0.0094463  0.5079947  0.0097099

 Al 
  0.0046990  0.7474036  0.2657344

 Al 
  0.2427157  0.4939768  0.2424014

 Al 
  0.2449334  0.7554502  0.0038637

 Al 
  0.0129325  0.9965410  0.4941364

 Al 
  0.0068808  0.2528353  0.7442664

 Al 
  0.2340862  0.9778711  0.7588189

 Al 
  0.2624239  0.2336951  0.5128880

 Al 
  0.0143458  0.4812361  0.4993330

 Al 
  0.0026038  0.7420437  0.7368756

 Al 
  0.2468430  0.5146750  0.7564452

 Al 
  0.2594488  0.7319551  0.4878075

 Al 
  0.4819922  0.5117172  0.9973640

 Al 
  0.5141354  0.7607458  0.2456797

 Al 
  0.7559787  0.4900302  0.2562831

 Al 
  0.7618101  0.7573202  0.9976548

 Al 
  0.5022536  0.9926650  0.4823734

 Al 
  0.5027140  0.2546693  0.7508094

 Al 
  0.7503552  0.9938679  0.7424026

 Al 
  0.7551940  0.2502054  0.5048079

 Al 
  0.5053599  0.5133372  0.5089674

 Al 
  0.4989840  0.7509108  0.7529565

 Al 
  0.7442156  0.4871566  0.7547819

 Al 
  0.7571160  0.7485063  0.5002611

