32 
charge = 0 
 Al 
  0.9893322  0.0102062  0.9808970

 Al 
  0.9953851  0.2458232  0.2365564

 Al 
  0.2418098  0.0029008  0.2337595

 Al 
  0.2440486  0.2420239  0.9940696

 Al 
  0.4979345  0.0200398  0.9971746

 Al 
  0.4916564  0.2666328  0.2663482

 Al 
  0.7524479  0.0074179  0.2578239

 Al 
  0.7371009  0.2720880  0.0211636

 Al 
  0.0114066  0.5080145  0.0152814

 Al 
  0.0060405  0.7462972  0.2633508

 Al 
  0.2422021  0.4894028  0.2430709

 Al 
  0.2448678  0.7557745  0.9997240

 Al 
  0.0144287  0.0011348  0.4911007

 Al 
  0.0033253  0.2518031  0.7477291

 Al 
  0.2360452  0.9751535  0.7556569

 Al 
  0.2582991  0.2301532  0.5098460

 Al 
  0.0120266  0.4860551  0.4983293

 Al 
  0.9991387  0.7426204  0.7312571

 Al 
  0.2437441  0.5149733  0.7539788

 Al 
  0.2621652  0.7340033  0.4905042

 Al 
  0.4844735  0.5076469  0.0003230

 Al 
  0.5140562  0.7570776  0.2490050

 Al 
  0.7574947  0.4909621  0.2544317

 Al 
  0.7573103  0.7579080  0.0012314

 Al 
  0.4973293  0.9886676  0.4821432

 Al 
  0.4975472  0.2572187  0.7562633

 Al 
  0.7520952  0.9960881  0.7441674

 Al 
  0.7554168  0.2462923  0.5091146

 Al 
  0.4927603  0.5132964  0.5113682

 Al 
  0.5050926  0.7506633  0.7483998

 Al 
  0.7430622  0.4863472  0.7578659

 Al 
  0.7599550  0.7453109  0.4980669

