32 
charge = 0 
 Al 
  0.9852656  0.0098720  0.9790988

 Al 
  0.9943134  0.2445881  0.2365205

 Al 
  0.2398644  0.0033637  0.2347025

 Al 
  0.2447775  0.2430461  0.9941921

 Al 
  0.5002314  0.0188159  0.9985409

 Al 
  0.4908730  0.2670128  0.2689978

 Al 
  0.7502438  0.0049168  0.2576221

 Al 
  0.7362296  0.2710732  0.0200745

 Al 
  0.0109252  0.5080429  0.0135513

 Al 
  0.0056185  0.7466846  0.2643396

 Al 
  0.2422788  0.4909646  0.2426637

 Al 
  0.2448951  0.7556631  0.0010891

 Al 
  0.0139968  0.9995273  0.4920883

 Al 
  0.0046074  0.2521707  0.7464420

 Al 
  0.2351431  0.9758787  0.7569365

 Al 
  0.2598386  0.2312485  0.5109314

 Al 
  0.0129239  0.4843040  0.4987166

 Al 
  0.0004344  0.7424620  0.7331258

 Al 
  0.2447874  0.5150698  0.7548772

 Al 
  0.2613460  0.7330664  0.4895414

 Al 
  0.4834587  0.5091047  0.9992154

 Al 
  0.5141862  0.7585268  0.2479506

 Al 
  0.7570343  0.4903569  0.2549602

 Al 
  0.7589501  0.7578288  0.9999592

 Al 
  0.4990879  0.9899782  0.4819823

 Al 
  0.4994084  0.2564291  0.7544255

 Al 
  0.7515705  0.9952205  0.7436204

 Al 
  0.7554020  0.2476895  0.5076655

 Al 
  0.4970323  0.5135303  0.5106245

 Al 
  0.5029268  0.7506596  0.7499431

 Al 
  0.7433345  0.4864165  0.7567893

 Al 
  0.7590169  0.7464890  0.4988119

