32 
charge = 0 
 Al 
  0.9907047  0.0102928  0.9815442

 Al 
  0.9957712  0.2462390  0.2366059

 Al 
  0.2424818  0.0027363  0.2334686

 Al 
  0.2438048  0.2417108  0.9940189

 Al 
  0.4971771  0.0204124  0.9967266

 Al 
  0.4919385  0.2664819  0.2654411

 Al 
  0.7531892  0.0082471  0.2578659

 Al 
  0.7374016  0.2723838  0.0214754

 Al 
  0.0115229  0.5079996  0.0158049

 Al 
  0.0061754  0.7461722  0.2629870

 Al 
  0.2422046  0.4888929  0.2432491

 Al 
  0.2448616  0.7558054  0.9992847

 Al 
  0.0145513  0.0016707  0.4907839

 Al 
  0.0028897  0.2516831  0.7481734

 Al 
  0.2363955  0.9749604  0.7551866

 Al 
  0.2577682  0.2298228  0.5094773

 Al 
  0.0117073  0.4866504  0.4981944

 Al 
  0.9986894  0.7426650  0.7306581

 Al 
  0.2434026  0.5148965  0.7536756

 Al 
  0.2624016  0.7343683  0.4908259

 Al 
  0.4848386  0.5071581  0.0007104

 Al 
  0.5139931  0.7565578  0.2493292

 Al 
  0.7576308  0.4912282  0.2542869

 Al 
  0.7567509  0.7579130  0.0016608

 Al 
  0.4967378  0.9882531  0.4822472

 Al 
  0.4969098  0.2574625  0.7568561

 Al 
  0.7522561  0.9963975  0.7443406

 Al 
  0.7554057  0.2458232  0.5095862

 Al 
  0.4913668  0.5131578  0.5115935

 Al 
  0.5058215  0.7506819  0.7478986

 Al 
  0.7429991  0.4863707  0.7582236

 Al 
  0.7602532  0.7449050  0.4978207

