32 
charge = 0 
 Al 
  0.9947602  0.0104562  0.9835763

 Al 
  0.9969853  0.2474741  0.2368756

 Al 
  0.2445238  0.0022165  0.2326915

 Al 
  0.2430870  0.2408940  0.9938431

 Al 
  0.4949928  0.0213863  0.9954421

 Al 
  0.4928296  0.2659608  0.2627308

 Al 
  0.7553661  0.0106505  0.2579204

 Al 
  0.7383211  0.2731115  0.0222328

 Al 
  0.0117234  0.5079476  0.0171724

 Al 
  0.0065628  0.7458245  0.2618150

 Al 
  0.2423073  0.4874313  0.2438963

 Al 
  0.2448555  0.7558685  0.9980447

 Al 
  0.0148396  0.0032300  0.4898916

 Al 
  0.0015878  0.2513390  0.7495149

 Al 
  0.2375650  0.9745396  0.7536731

 Al 
  0.2561631  0.2289738  0.5083684

 Al 
  0.0107161  0.4884152  0.4977860

 Al 
  0.9973170  0.7427788  0.7289911

 Al 
  0.2424162  0.5145339  0.7527796

 Al 
  0.2629635  0.7355923  0.4917615

 Al 
  0.4859772  0.5057188  0.0018972

 Al 
  0.5137456  0.7549317  0.2501968

 Al 
  0.7579749  0.4921935  0.2539627

 Al 
  0.7550827  0.7578721  0.0029404

 Al 
  0.4950002  0.9871207  0.4826939

 Al 
  0.4949916  0.2581246  0.7585231

 Al 
  0.7526929  0.9973652  0.7448394

 Al 
  0.7553203  0.2444532  0.5109302

 Al 
  0.4873806  0.5125526  0.5121789

 Al 
  0.5079860  0.7507846  0.7464779

 Al 
  0.7428927  0.4865799  0.7592570

 Al 
  0.7610712  0.7436748  0.4970942

