32 
charge = 0 
 Al 
  0.9920709  0.0103646  0.9822088

 Al 
  0.9961673  0.2466549  0.2366764

 Al 
  0.2431600  0.0025667  0.2331927

 Al 
  0.2435622  0.2414175  0.9939644

 Al 
  0.4964309  0.0207626  0.9962873

 Al 
  0.4922293  0.2663185  0.2645327

 Al 
  0.7539255  0.0090651  0.2578969

 Al 
  0.7377061  0.2726536  0.0217588

 Al 
  0.0116133  0.5079835  0.0162975

 Al 
  0.0063066  0.7460509  0.2626083

 Al 
  0.2422232  0.4883929  0.2434459

 Al 
  0.2448567  0.7558326  0.9988577

 Al 
  0.0146602  0.0022004  0.4904770

 Al 
  0.0024528  0.2515643  0.7486201

 Al 
  0.2367667  0.9747933  0.7546978

 Al 
  0.2572323  0.2295159  0.5091072

 Al 
  0.0113819  0.4872444  0.4980583

 Al 
  0.9982328  0.7427058  0.7300790

 Al 
  0.2430672  0.5147963  0.7533724

 Al 
  0.2626145  0.7347557  0.4911440

 Al 
  0.4852124  0.5066705  0.0011027

 Al 
  0.5139189  0.7560257  0.2496374

 Al 
  0.7577570  0.4915227  0.2541594

 Al 
  0.7561915  0.7579068  0.0020915

 Al 
  0.4961499  0.9878558  0.4823746

 Al 
  0.4962700  0.2576952  0.7574328

 Al 
  0.7524083  0.9967155  0.7445102

 Al 
  0.7553871  0.2453591  0.5100465

 Al 
  0.4900017  0.5129882  0.5118039

 Al 
  0.5065504  0.7507079  0.7474098

 Al 
  0.7429496  0.4864190  0.7585751

 Al 
  0.7605391  0.7444953  0.4975756

