32 
charge = 0 
 Al 
  0.9934261  0.0104190  0.9828870

 Al 
  0.9965732  0.2470670  0.2367655

 Al 
  0.2438419  0.0023934  0.2329328

 Al 
  0.2433221  0.2411440  0.9939050

 Al 
  0.4957019  0.0210881  0.9958579

 Al 
  0.4925276  0.2661452  0.2636280

 Al 
  0.7546520  0.0098671  0.2579154

 Al 
  0.7380130  0.2728974  0.0220113

 Al 
  0.0116814  0.5079662  0.0167541

 Al 
  0.0064366  0.7459334  0.2622172

 Al 
  0.2422566  0.4879041  0.2436624

 Al 
  0.2448555  0.7558537  0.9984431

 Al 
  0.0147567  0.0027214  0.4901787

 Al 
  0.0020185  0.2514492  0.7490681

 Al 
  0.2371578  0.9746535  0.7541929

 Al 
  0.2566965  0.2292325  0.5087372

 Al 
  0.0110514  0.4878335  0.4979221

 Al 
  0.9977749  0.7427442  0.7295221

 Al 
  0.2427380  0.5146763  0.7530729

 Al 
  0.2628026  0.7351641  0.4914559

 Al 
  0.4855935  0.5061903  0.0014999

 Al 
  0.5138372  0.7554824  0.2499270

 Al 
  0.7578721  0.4918457  0.2540518

 Al 
  0.7556346  0.7578932  0.0025172

 Al 
  0.4955695  0.9874771  0.4825231

 Al 
  0.4956289  0.2579167  0.7579897

 Al 
  0.7525543  0.9970385  0.7446760

 Al 
  0.7553586  0.2449012  0.5104958

 Al 
  0.4886701  0.5127865  0.5120006

 Al 
  0.5072719  0.7507425  0.7469346

 Al 
  0.7429150  0.4864883  0.7589204

 Al 
  0.7608126  0.7440845  0.4973331

