32 
charge = 0 
 Al 
  0.9997946  0.0104091  0.9863732

 Al 
  0.9986709  0.2490285  0.2375142

 Al 
  0.2472105  0.0014863  0.2319242

 Al 
  0.2421984  0.2401540  0.9935634

 Al 
  0.4924199  0.0222873  0.9939310

 Al 
  0.4940609  0.2651280  0.2593015

 Al 
  0.7580367  0.0135327  0.2578276

 Al 
  0.7395599  0.2736709  0.0227984

 Al 
  0.0116628  0.5078684  0.0184483

 Al 
  0.0070430  0.7454656  0.2601393

 Al 
  0.2426687  0.4857210  0.2449928

 Al 
  0.2448963  0.7558524  0.9966215

 Al 
  0.0150240  0.0051062  0.4888595

 Al 
  0.9999282  0.2509579  0.7512487

 Al 
  0.2393235  0.9743528  0.7514913

 Al 
  0.2541099  0.2282251  0.5069316

 Al 
  0.0093622  0.4906081  0.4972600

 Al 
  0.9955237  0.7429038  0.7271620

 Al 
  0.2412158  0.5137728  0.7516868

 Al 
  0.2633112  0.7374635  0.4928754

 Al 
  0.4875068  0.5039664  0.0034788

 Al 
  0.5133087  0.7526991  0.2510668

 Al 
  0.7582632  0.4938035  0.2538129

 Al 
  0.7529701  0.7577335  0.0045555

 Al 
  0.4928815  0.9859413  0.4835478

 Al 
  0.4925066  0.2588362  0.7603844

 Al 
  0.7531706  0.9986857  0.7454656

 Al 
  0.7550814  0.2428085  0.5125006

 Al 
  0.4827125  0.5112940  0.5127197

 Al 
  0.5107099  0.7510111  0.7448567

 Al 
  0.7429323  0.4871454  0.7604933

 Al 
  0.7619363  0.7420846  0.4961697

