32 
charge = 0 
 Al 
  0.0061767  0.0097149  0.9905364

 Al 
  0.0012190  0.2510891  0.2390426

 Al 
  0.2510396  0.0003552  0.2313982

 Al 
  0.2410846  0.2399089  0.9930981

 Al 
  0.4894671  0.0227142  0.9921786

 Al 
  0.4958789  0.2635897  0.2548253

 Al 
  0.7613682  0.0169794  0.2573598

 Al 
  0.7414423  0.2736127  0.0227155

 Al 
  0.0109450  0.5077694  0.0191575

 Al 
  0.0077162  0.7452403  0.2575009

 Al 
  0.2436822  0.4837768  0.2470249

 Al 
  0.2451104  0.7555468  0.9950015

 Al 
  0.0148458  0.0073177  0.4876566

 Al 
  0.9976969  0.2505916  0.7536100

 Al 
  0.2422083  0.9748119  0.7480088

 Al 
  0.2514071  0.2279887  0.5049020

 Al 
  0.0073536  0.4933667  0.4965559

 Al 
  0.9930672  0.7431093  0.7254022

 Al 
  0.2396565  0.5121331  0.7503824

 Al 
  0.2628991  0.7405945  0.4941612

 Al 
  0.4896565  0.5018378  0.0057324

 Al 
  0.5124462  0.7493775  0.2517586

 Al 
  0.7583177  0.4966883  0.2541718

 Al 
  0.7501832  0.7574501  0.0066965

 Al 
  0.4903198  0.9849970  0.4852247

 Al 
  0.4890847  0.2595787  0.7622741

 Al 
  0.7536991  0.0006101  0.7464111

 Al 
  0.7544490  0.2409151  0.5143050

 Al 
  0.4773019  0.5084662  0.5129907

 Al 
  0.5143149  0.7514554  0.7431018

 Al 
  0.7432961  0.4884783  0.7619598

 Al 
  0.7626702  0.7399361  0.4948555

