32 
charge = 0 
 Al 
  0.9985892  0.0104512  0.9856727

 Al 
  0.9982464  0.2486523  0.2373249

 Al 
  0.2465472  0.0016719  0.2320850

 Al 
  0.2424100  0.2402975  0.9936365

 Al 
  0.4930201  0.0221078  0.9942837

 Al 
  0.4937515  0.2653495  0.2601282

 Al 
  0.7574006  0.0128533  0.2578684

 Al 
  0.7392505  0.2735768  0.0227056

 Al 
  0.0117123  0.5078882  0.0181909

 Al 
  0.0069266  0.7455411  0.2605663

 Al 
  0.2425548  0.4861183  0.2446970

 Al 
  0.2448790  0.7558685  0.9969506

 Al 
  0.0150005  0.0046656  0.4890995

 Al 
  0.0003317  0.2510433  0.7508255

 Al 
  0.2388681  0.9743602  0.7520494

 Al 
  0.2546074  0.2283686  0.5072843

 Al 
  0.0097000  0.4900834  0.4973875

 Al 
  0.9959631  0.7428741  0.7275717

 Al 
  0.2415017  0.5139906  0.7519454

 Al 
  0.2632704  0.7369759  0.4926142

 Al 
  0.4871294  0.5043810  0.0030877

 Al 
  0.5134288  0.7532585  0.2508811

 Al 
  0.7582100  0.4933729  0.2538191

 Al 
  0.7534800  0.7577744  0.0041644

 Al 
  0.4933840  0.9861962  0.4833115

 Al 
  0.4931142  0.2586766  0.7599624

 Al 
  0.7530617  0.9983565  0.7453121

 Al 
  0.7551544  0.2431946  0.5121343

 Al 
  0.4838003  0.5116566  0.5126120

 Al 
  0.5100515  0.7509467  0.7452280

 Al 
  0.7429051  0.4869759  0.7602025

 Al 
  0.7617482  0.7424719  0.4963962

