32 
charge = 0 
 Al 
  0.0020828  0.0102631  0.9877704

 Al 
  0.9995211  0.2497512  0.2379486

 Al 
  0.2485124  0.0011138  0.2316655

 Al 
  0.2417962  0.2399547  0.9934112

 Al 
  0.4913135  0.0225533  0.9932800

 Al 
  0.4946735  0.2646552  0.2577150

 Al 
  0.7592384  0.0148000  0.2577137

 Al 
  0.7401812  0.2737686  0.0228900

 Al 
  0.0115019  0.5078325  0.0188419

 Al 
  0.0072707  0.7453468  0.2592743

 Al 
  0.2429447  0.4849884  0.2456240

 Al 
  0.2449433  0.7557906  0.9960150

 Al 
  0.0150252  0.0059279  0.4884139

 Al 
  0.9991498  0.2508069  0.7520692

 Al 
  0.2402591  0.9744109  0.7503552

 Al 
  0.2531533  0.2280271  0.5062398

 Al 
  0.0086877  0.4916031  0.4970125

 Al 
  0.9946698  0.7429645  0.7264430

 Al 
  0.2406663  0.5132877  0.7512054

 Al 
  0.2632988  0.7384721  0.4933568

 Al 
  0.4882481  0.5031867  0.0042486

 Al 
  0.5130489  0.7515841  0.2513762

 Al 
  0.7583313  0.4947119  0.2538587

 Al 
  0.7519875  0.7576444  0.0053067

 Al 
  0.4919410  0.9855143  0.4840614

 Al 
  0.4913234  0.2591221  0.7611356

 Al 
  0.7533686  0.9993379  0.7457750

 Al 
  0.7549082  0.2420957  0.5131739

 Al 
  0.4807015  0.5104747  0.5128806

 Al 
  0.5119759  0.7511497  0.7441810

 Al 
  0.7430177  0.4875316  0.7610341

 Al 
  0.7622581  0.7413321  0.4957255

