32 
charge = 0 
 Al 
  0.0140934  0.0067249  0.9975942

 Al 
  0.0055715  0.2540307  0.2431612

 Al 
  0.2573474  0.9982934  0.2322249

 Al 
  0.2397777  0.2419880  0.9923556

 Al 
  0.4867853  0.0209420  0.9903668

 Al 
  0.4988936  0.2599302  0.2489345

 Al 
  0.7654411  0.0206351  0.2556656

 Al 
  0.7451030  0.2712366  0.0203431

 Al 
  0.0082904  0.5076964  0.0174175

 Al 
  0.0089451  0.7458591  0.2525667

 Al 
  0.2466437  0.4821902  0.2513452

 Al 
  0.2460980  0.7540505  0.9932714

 Al 
  0.0132432  0.0094104  0.4863930

 Al 
  0.9944557  0.2505000  0.7570714

 Al 
  0.2476066  0.9774145  0.7415351

 Al 
  0.2478343  0.2300097  0.5015952

 Al 
  0.0039726  0.4966400  0.4956252

 Al 
  0.9896107  0.7438419  0.7250792

 Al 
  0.2373335  0.5081419  0.7490817

 Al 
  0.2596827  0.7464593  0.4953332

 Al 
  0.4928358  0.4995285  0.0092050

 Al 
  0.5102124  0.7437701  0.2516620

 Al 
  0.7574303  0.5023860  0.2560665

 Al 
  0.7463851  0.7570355  0.0096975

 Al 
  0.4877766  0.9856579  0.4888780

 Al 
  0.4839513  0.2602643  0.7631417

 Al 
  0.7542869  0.0036904  0.7484357

 Al 
  0.7525085  0.2394127  0.5160586

 Al 
  0.4716994  0.5011311  0.5121083

 Al 
  0.5193518  0.7522202  0.7417343

 Al 
  0.7444978  0.4918209  0.7634956

 Al 
  0.7623323  0.7370848  0.4925561

