32 
charge = 0 
 Al 
  0.0134201  0.0071370  0.9968566

 Al 
  0.0051210  0.2537498  0.2426514

 Al 
  0.2566890  0.9985186  0.2320380

 Al 
  0.2398829  0.2416291  0.9924224

 Al 
  0.4869388  0.0212663  0.9905005

 Al 
  0.4985805  0.2603819  0.2494579

 Al 
  0.7650970  0.0203715  0.2558933

 Al 
  0.7446797  0.2716066  0.0207057

 Al 
  0.0086394  0.5076989  0.0177504

 Al 
  0.0088053  0.7457341  0.2531112

 Al 
  0.2462687  0.4822534  0.2508552

 Al 
  0.2459519  0.7542696  0.9934112

 Al 
  0.0134870  0.0092867  0.4864833

 Al 
  0.9947663  0.2504839  0.7567373

 Al 
  0.2470237  0.9770445  0.7422355

 Al 
  0.2481548  0.2296644  0.5019368

 Al 
  0.0043240  0.4963752  0.4957044

 Al 
  0.9899275  0.7437317  0.7249604

 Al 
  0.2375674  0.5086184  0.7491696

 Al 
  0.2601530  0.7458368  0.4952651

 Al 
  0.4925313  0.4997005  0.0088671

 Al 
  0.5105020  0.7443530  0.2517239

 Al 
  0.7575751  0.5017710  0.2558128

 Al 
  0.7467304  0.7570665  0.0094179

 Al 
  0.4879313  0.9854624  0.4884622

 Al 
  0.4844513  0.2602173  0.7631776

 Al 
  0.7542374  0.0033810  0.7481882

 Al 
  0.7527660  0.2394683  0.5159448

 Al 
  0.4721091  0.5020259  0.5122692

 Al 
  0.5188852  0.7521521  0.7417962

 Al 
  0.7443468  0.4914187  0.7633855

 Al 
  0.7624598  0.7373261  0.4928048

