32 
charge = 0 
 Al 
  0.0127234  0.0075244  0.9961289

 Al 
  0.0046743  0.2534677  0.2421650

 Al 
  0.2560393  0.9987377  0.2318771

 Al 
  0.2399918  0.2413049  0.9924917

 Al 
  0.4871170  0.0215559  0.9906440

 Al 
  0.4982711  0.2608113  0.2499938

 Al 
  0.7647406  0.0200856  0.2561074

 Al 
  0.7442713  0.2719457  0.0210398

 Al 
  0.0089686  0.5077026  0.0180486

 Al 
  0.0086704  0.7456240  0.2536421

 Al 
  0.2459136  0.4823387  0.2503799

 Al 
  0.2458170  0.7544701  0.9935572

 Al 
  0.0137097  0.0091431  0.4865811

 Al 
  0.9950795  0.2504715  0.7564019

 Al 
  0.2464519  0.9767004  0.7429211

 Al 
  0.2484803  0.2293513  0.5022746

 Al 
  0.0046718  0.4960967  0.4957873

 Al 
  0.9902492  0.7436327  0.7248775

 Al 
  0.2378001  0.5090775  0.7492649

 Al 
  0.2605886  0.7452205  0.4951871

 Al 
  0.4922244  0.4998849  0.0085268

 Al 
  0.5107730  0.7449285  0.2517747

 Al 
  0.7577063  0.5011658  0.2555727

 Al 
  0.7470831  0.7570999  0.0091344

 Al 
  0.4881107  0.9852965  0.4880575

 Al 
  0.4849537  0.2601653  0.7631862

 Al 
  0.7541867  0.0030729  0.7479531

 Al 
  0.7530060  0.2395451  0.5158185

 Al 
  0.4725496  0.5028848  0.5124140

 Al 
  0.5184112  0.7520803  0.7418742

 Al 
  0.7442020  0.4910326  0.7632667

 Al 
  0.7625650  0.7375786  0.4930486

