32 
charge = 0 
 Al 
  0.0120031  0.0078845  0.9954099

 Al 
  0.0042325  0.2531830  0.2417009

 Al 
  0.2553995  0.9989518  0.2317398

 Al 
  0.2401069  0.2410165  0.9925635

 Al 
  0.4873199  0.0218120  0.9907962

 Al 
  0.4979654  0.2612197  0.2505421

 Al 
  0.7643706  0.0197787  0.2563079

 Al 
  0.7438790  0.2722551  0.0213442

 Al 
  0.0092792  0.5077063  0.0183110

 Al 
  0.0085392  0.7455287  0.2541594

 Al 
  0.2455745  0.4824464  0.2499171

 Al 
  0.2456945  0.7546557  0.9937070

 Al 
  0.0139139  0.0089810  0.4866875

 Al 
  0.9953950  0.2504666  0.7560653

 Al 
  0.2458901  0.9763811  0.7435956

 Al 
  0.2488144  0.2290716  0.5026088

 Al 
  0.0050146  0.4958059  0.4958727

 Al 
  0.9905784  0.7435424  0.7248280

 Al 
  0.2380303  0.5095181  0.7493701

 Al 
  0.2609908  0.7446141  0.4950980

 Al 
  0.4919162  0.5000817  0.0081852

 Al 
  0.5110279  0.7454977  0.2518167

 Al 
  0.7578251  0.5005693  0.2553475

 Al 
  0.7474420  0.7571370  0.0088473

 Al 
  0.4883112  0.9851604  0.4876652

 Al 
  0.4854562  0.2601096  0.7631677

 Al 
  0.7541335  0.0027647  0.7477291

 Al 
  0.7532325  0.2396441  0.5156787

 Al 
  0.4730211  0.5037053  0.5125427

 Al 
  0.5179298  0.7520061  0.7419682

 Al 
  0.7440647  0.4906626  0.7631380

 Al 
  0.7626491  0.7378409  0.4932875

