32 
charge = 0 
 Al 
  0.0195881  0.0012314  0.0053995

 Al 
  0.0101406  0.2567286  0.2493664

 Al 
  0.2644733  0.9958047  0.2355168

 Al 
  0.2390389  0.2474531  0.9919571

 Al 
  0.4866492  0.0157863  0.9894584

 Al 
  0.5023180  0.2540877  0.2444248

 Al 
  0.7682033  0.0220472  0.2526014

 Al 
  0.7503502  0.2658581  0.0152035

 Al 
  0.0037498  0.5077125  0.0122086

 Al 
  0.0106257  0.7479419  0.2464024

 Al 
  0.2513230  0.4829959  0.2567571

 Al 
  0.2483664  0.7508787  0.9919794

 Al 
  0.0096654  0.0095837  0.4860069

 Al 
  0.9914509  0.2509047  0.7602718

 Al 
  0.2538463  0.9826061  0.7341097

 Al 
  0.2449619  0.2352334  0.4980224

 Al 
  0.0002661  0.4986201  0.4951277

 Al 
  0.9868707  0.7455510  0.7283043

 Al 
  0.2348337  0.5024813  0.7486362

 Al 
  0.2532263  0.7528229  0.4954247

 Al 
  0.4957836  0.4983986  0.0123595

 Al 
  0.5061581  0.7377110  0.2507562

 Al 
  0.7553351  0.5086394  0.2590701

 Al 
  0.7433691  0.7569799  0.0122605

 Al 
  0.4877160  0.9892641  0.4935684

 Al 
  0.4791000  0.2604772  0.7613076

 Al 
  0.7547312  0.0068487  0.7516695

 Al 
  0.7490223  0.2401540  0.5163643

 Al 
  0.4692008  0.4903767  0.5096691

 Al 
  0.5234617  0.7526298  0.7418878

 Al 
  0.7463640  0.4966722  0.7640785

 Al 
  0.7598089  0.7355230  0.4898322

