32 
charge = 0 
 Al 
  0.0186835  0.0024912  0.0038154

 Al 
  0.0092545  0.2562163  0.2480050

 Al 
  0.2629944  0.9963282  0.2346542

 Al 
  0.2391392  0.2461178  0.9919806

 Al 
  0.4864734  0.0170784  0.9895834

 Al 
  0.5015989  0.2554378  0.2452044

 Al 
  0.7677603  0.0219506  0.2533154

 Al 
  0.7491622  0.2671576  0.0164286

 Al 
  0.0047943  0.5077051  0.0134919

 Al 
  0.0102557  0.7474160  0.2477130

 Al 
  0.2502785  0.4826098  0.2556433

 Al 
  0.2477897  0.7516509  0.9922343

 Al 
  0.0105391  0.0097062  0.4859995

 Al 
  0.9920227  0.2507970  0.7596691

 Al 
  0.2525816  0.9813635  0.7355985

 Al 
  0.2454878  0.2339624  0.4987414

 Al 
  0.0010198  0.4983231  0.4951710

 Al 
  0.9873397  0.7451178  0.7273650

 Al 
  0.2353497  0.5037065  0.7486709

 Al 
  0.2547362  0.7515853  0.4954891

 Al 
  0.4952168  0.4985434  0.0117890

 Al 
  0.5071432  0.7389213  0.2509517

 Al 
  0.7558351  0.5074378  0.2584389

 Al 
  0.7438914  0.7569489  0.0117964

 Al 
  0.4874870  0.9883149  0.4925858

 Al 
  0.4800183  0.2604784  0.7618756

 Al 
  0.7546508  0.0062212  0.7509158

 Al 
  0.7498478  0.2398124  0.5164324

 Al 
  0.4694594  0.4927157  0.5102606

 Al 
  0.5227551  0.7526026  0.7417516

 Al 
  0.7459470  0.4956042  0.7640389

 Al 
  0.7604896  0.7356765  0.4903903

