32 
charge = 0 
 Al 
  0.0225274  0.9945646  0.0126157

 Al 
  0.0136491  0.2588906  0.2562076

 Al 
  0.2717539  0.9932392  0.2411762

 Al 
  0.2389684  0.2552782  0.9926687

 Al 
  0.4889931  0.0077533  0.9891342

 Al 
  0.5060727  0.2463195  0.2416786

 Al 
  0.7694037  0.0209990  0.2485780

 Al 
  0.7570207  0.2580838  0.0080070

 Al 
  0.9977872  0.5077583  0.0045963

 Al 
  0.0125427  0.7510371  0.2398891

 Al 
  0.2567806  0.4867903  0.2616442

 Al 
  0.2522437  0.7461277  0.9905017

 Al 
  0.0042956  0.0078400  0.4868880

 Al 
  0.9890785  0.2514257  0.7626256

 Al 
  0.2594649  0.9900450  0.7277944

 Al 
  0.2426712  0.2425053  0.4947552

 Al 
  0.9966202  0.4994196  0.4955844

 Al 
  0.9854252  0.7484617  0.7351356

 Al 
  0.2322769  0.4963962  0.7487080

 Al 
  0.2447490  0.7578387  0.4945968

 Al 
  0.4984035  0.4980409  0.0142233

 Al 
  0.4999295  0.7323821  0.2501683

 Al 
  0.7524776  0.5130847  0.2617432

 Al 
  0.7416774  0.7575058  0.0139609

 Al 
  0.4911514  0.9953938  0.4982612

 Al 
  0.4755198  0.2599327  0.7573783

 Al 
  0.7550307  0.0097631  0.7561371

 Al 
  0.7440845  0.2433729  0.5148334

 Al 
  0.4701475  0.4786867  0.5062509

 Al 
  0.5254468  0.7521732  0.7432008

 Al 
  0.7485595  0.5022746  0.7636293

 Al 
  0.7552485  0.7366145  0.4874276

