32 
charge = 0 
 Al 
  0.0218467  0.9967898  0.0104166

 Al 
  0.0127147  0.2582558  0.2539850

 Al 
  0.2693827  0.9940659  0.2390401

 Al 
  0.2388978  0.2524962  0.9922293

 Al 
  0.4879338  0.0107123  0.9891961

 Al 
  0.5047906  0.2490867  0.2423692

 Al 
  0.7692144  0.0216573  0.2499839

 Al 
  0.7546817  0.2609029  0.0105849

 Al 
  0.9999047  0.5077397  0.0073214

 Al 
  0.0119078  0.7499542  0.2420053

 Al 
  0.2549626  0.4851493  0.2602260

 Al 
  0.2507463  0.7478788  0.9910574

 Al 
  0.0062769  0.0086320  0.4864079

 Al 
  0.9897517  0.2512759  0.7620019

 Al 
  0.2577954  0.9873410  0.7295889

 Al 
  0.2433840  0.2399696  0.4957564

 Al 
  0.9978058  0.4992686  0.4952824

 Al 
  0.9857099  0.7473318  0.7324439

 Al 
  0.2331147  0.4983578  0.7486498

 Al 
  0.2477093  0.7564502  0.4949532

 Al 
  0.4975632  0.4981226  0.0138359

 Al 
  0.5022610  0.7339674  0.2502450

 Al 
  0.7534837  0.5119969  0.2610007

 Al 
  0.7420462  0.7572571  0.0135278

 Al 
  0.4895141  0.9931055  0.4967761

 Al 
  0.4764640  0.2602421  0.7588597

 Al 
  0.7549589  0.0088473  0.7545183

 Al 
  0.7458839  0.2419967  0.5155945

 Al 
  0.4693394  0.4824761  0.5074588

 Al 
  0.5251411  0.7524528  0.7426538

 Al 
  0.7478268  0.5003874  0.7639127

 Al 
  0.7569873  0.7358324  0.4881157

