32 
charge = 0 
 Al 
  0.0229135  0.9923209  0.0145438

 Al 
  0.0142171  0.2594451  0.2583857

 Al 
  0.2741671  0.9924385  0.2437949

 Al 
  0.2392047  0.2584129  0.9935300

 Al 
  0.4905029  0.0042139  0.9891095

 Al 
  0.5075095  0.2431303  0.2412034

 Al 
  0.7692862  0.0198233  0.2470224

 Al 
  0.7596344  0.2547584  0.0050406

 Al 
  0.9953381  0.5077843  0.0014925

 Al 
  0.0131887  0.7521608  0.2377902

 Al 
  0.2586171  0.4891070  0.2627147

 Al 
  0.2541644  0.7440077  0.9897517

 Al 
  0.0018761  0.0067212  0.4877234

 Al 
  0.9885847  0.2514950  0.7629907

 Al 
  0.2608448  0.9932602  0.7264715

 Al 
  0.2419200  0.2452465  0.4938481

 Al 
  0.9953653  0.4994864  0.4961574

 Al 
  0.9854413  0.7499641  0.7386379

 Al 
  0.2314242  0.4944941  0.7487748

 Al 
  0.2414398  0.7588510  0.4941612

 Al 
  0.4993156  0.4979011  0.0142307

 Al 
  0.4970657  0.7310306  0.2503465

 Al 
  0.7513403  0.5135340  0.2622284

 Al 
  0.7415722  0.7578709  0.0142233

 Al 
  0.4937206  0.9981511  0.4997129

 Al 
  0.4749542  0.2593535  0.7556420

 Al 
  0.7550517  0.0106529  0.7580404

 Al 
  0.7419447  0.2453010  0.5136243

 Al 
  0.4718826  0.4749579  0.5048884

 Al 
  0.5251559  0.7516818  0.7439038

 Al 
  0.7492896  0.5042758  0.7630922

 Al 
  0.7530654  0.7381652  0.4869202

