32 
charge = 0 
 Al 
  0.0229531  0.9906972  0.0156020

 Al 
  0.0141404  0.2597767  0.2599191

 Al 
  0.2760259  0.9918964  0.2463665

 Al 
  0.2396082  0.2611740  0.9947800

 Al 
  0.4921786  0.0008143  0.9891243

 Al 
  0.5088226  0.2402022  0.2410091

 Al 
  0.7688246  0.0182751  0.2456784

 Al 
  0.7619140  0.2516051  0.0023576

 Al 
  0.9930597  0.5078065  0.9987166

 Al 
  0.0136800  0.7529726  0.2362767

 Al 
  0.2599537  0.4916885  0.2630377

 Al 
  0.2561457  0.7419323  0.9888941

 Al 
  0.9994505  0.0054948  0.4888359

 Al 
  0.9884857  0.2514022  0.7628855

 Al 
  0.2614809  0.9963467  0.7261064

 Al 
  0.2412455  0.2475088  0.4932850

 Al 
  0.9942750  0.4995260  0.4969407

 Al 
  0.9858410  0.7516299  0.7423197

 Al 
  0.2307819  0.4931773  0.7487897

 Al 
  0.2384993  0.7591567  0.4938023

 Al 
  0.5001708  0.4976325  0.0137394

 Al 
  0.4942565  0.7303190  0.2508465

 Al 
  0.7503181  0.5130365  0.2622407

 Al 
  0.7418110  0.7582694  0.0142320

 Al 
  0.4968764  0.0007871  0.5008057

 Al 
  0.4750421  0.2585330  0.7540914

 Al 
  0.7549948  0.0112841  0.7598052

 Al 
  0.7399287  0.2474580  0.5121504

 Al 
  0.4744592  0.4722798  0.5036657

 Al 
  0.5241263  0.7510457  0.7445894

 Al 
  0.7497958  0.5059193  0.7623249

 Al 
  0.7508539  0.7403532  0.4867791

