32 
charge = 0 
 Al 
  0.0226412  0.9940659  0.0130748

 Al 
  0.0138149  0.2590218  0.2566977

 Al 
  0.2722848  0.9930585  0.2417059

 Al 
  0.2390030  0.2559378  0.9928122

 Al 
  0.4892815  0.0070306  0.9891255

 Al 
  0.5063734  0.2456574  0.2415536

 Al 
  0.7694099  0.0207935  0.2482488

 Al 
  0.7575726  0.2574006  0.0073895

 Al 
  0.9972798  0.5077632  0.0039466

 Al 
  0.0126850  0.7512846  0.2394201

 Al 
  0.2571878  0.4872321  0.2619202

 Al 
  0.2526249  0.7456970  0.9903569

 Al 
  0.0038067  0.0076259  0.4870341

 Al 
  0.9889486  0.2514517  0.7627358

 Al 
  0.2598027  0.9907034  0.7274491

 Al 
  0.2425103  0.2430944  0.4945436

 Al 
  0.9963504  0.4994406  0.4956834

 Al 
  0.9853968  0.7487525  0.7358262

 Al 
  0.2320888  0.4959668  0.7487228

 Al 
  0.2440523  0.7581036  0.4945065

 Al 
  0.4985966  0.4980187  0.0142654

 Al 
  0.4993503  0.7320566  0.2501794

 Al 
  0.7522388  0.5132531  0.2618794

 Al 
  0.7416254  0.7575751  0.0140364

 Al 
  0.4916205  0.9959556  0.4985867

 Al 
  0.4753527  0.2598349  0.7570170

 Al 
  0.7550406  0.0099636  0.7565294

 Al 
  0.7436464  0.2437416  0.5146131

 Al 
  0.4704309  0.4778513  0.5059651

 Al 
  0.5254480  0.7520865  0.7433419

 Al 
  0.7487228  0.5027065  0.7635377

 Al 
  0.7548116  0.7368744  0.4872952

