32 
charge = 0 
 Al 
  0.0227724  0.9896688  0.0158284

 Al 
  0.0134053  0.2599166  0.2608621

 Al 
  0.2773972  0.9915994  0.2489889

 Al 
  0.2402022  0.2636627  0.9965014

 Al 
  0.4940560  0.9974036  0.9891849

 Al 
  0.5101035  0.2374338  0.2409720

 Al 
  0.7680313  0.0162789  0.2444953

 Al 
  0.7639312  0.2484852  0.9998899

 Al 
  0.9908383  0.5078115  0.9961796

 Al 
  0.0140327  0.7534454  0.2353064

 Al 
  0.2607928  0.4945857  0.2626491

 Al 
  0.2582471  0.7398124  0.9878607

 Al 
  0.9968690  0.0041409  0.4902864

 Al 
  0.9888124  0.2511150  0.7622581

 Al 
  0.2614128  0.9994419  0.7266534

 Al 
  0.2405797  0.2493874  0.4930189

 Al 
  0.9932380  0.4996287  0.4979716

 Al 
  0.9866269  0.7535815  0.7463405

 Al 
  0.2303574  0.4923865  0.7487006

 Al 
  0.2357792  0.7588337  0.4935907

 Al 
  0.5010853  0.4971487  0.0127395

 Al 
  0.4914385  0.7301978  0.2517016

 Al 
  0.7493565  0.5116096  0.2617927

 Al 
  0.7423704  0.7586877  0.0140253

 Al 
  0.5007326  0.0033711  0.5016707

 Al 
  0.4757896  0.2574241  0.7527264

 Al 
  0.7548488  0.0116727  0.7614561

 Al 
  0.7380130  0.2499220  0.5103819

 Al 
  0.4780011  0.4705411  0.5024974

 Al 
  0.5222897  0.7502537  0.7452440

 Al 
  0.7500681  0.5072868  0.7612445

 Al 
  0.7485211  0.7432602  0.4869771

