32 
charge = 0 
 Al 
  0.0229320  0.9904435  0.0157133

 Al 
  0.0140476  0.2598188  0.2601542

 Al 
  0.2763378  0.9918172  0.2468838

 Al 
  0.2397097  0.2616900  0.9950832

 Al 
  0.4925363  0.0001386  0.9891330

 Al 
  0.5090788  0.2396379  0.2409930

 Al 
  0.7686934  0.0179150  0.2454309

 Al 
  0.7623360  0.2509839  0.0018489

 Al 
  0.9926142  0.5078103  0.9981932

 Al 
  0.0137617  0.7530951  0.2360403

 Al 
  0.2601616  0.4922405  0.2630154

 Al 
  0.2565541  0.7415153  0.9887035

 Al 
  0.9989530  0.0052361  0.4890958

 Al 
  0.9885154  0.2513613  0.7628051

 Al 
  0.2615229  0.9969605  0.7261435

 Al 
  0.2411131  0.2479122  0.4932095

 Al 
  0.9940659  0.4995384  0.4971264

 Al 
  0.9859673  0.7519937  0.7430907

 Al 
  0.2306792  0.4929781  0.7487822

 Al 
  0.2379424  0.7591406  0.4937454

 Al 
  0.5003453  0.4975558  0.0135810

 Al 
  0.4936959  0.7302473  0.2509876

 Al 
  0.7501238  0.5128261  0.2621875

 Al 
  0.7418977  0.7583523  0.0142072

 Al 
  0.4975868  0.0013056  0.5009925

 Al 
  0.4751374  0.2583362  0.7538030

 Al 
  0.7549738  0.0113819  0.7601431

 Al 
  0.7395376  0.2479234  0.5118212

 Al 
  0.4750854  0.4718591  0.5034305

 Al 
  0.5238268  0.7509009  0.7447230

 Al 
  0.7498688  0.5062126  0.7621368

 Al 
  0.7504010  0.7408742  0.4867927

