32 
charge = 0 
 Al 
  0.0229023  0.9902146  0.0157925

 Al 
  0.0139288  0.2598547  0.2603658

 Al 
  0.2766311  0.9917492  0.2474036

 Al 
  0.2398198  0.2621962  0.9954062

 Al 
  0.4929013  0.9994604  0.9891429

 Al 
  0.5093349  0.2390810  0.2409819

 Al 
  0.7685486  0.0175363  0.2451884

 Al 
  0.7627481  0.2503614  0.0013489

 Al 
  0.9921699  0.5078127  0.9976783

 Al 
  0.0138372  0.7532028  0.2358250

 Al 
  0.2603497  0.4928060  0.2629659

 Al 
  0.2569675  0.7410945  0.9885055

 Al 
  0.9984469  0.0049713  0.4893706

 Al 
  0.9885624  0.2513118  0.7627023

 Al 
  0.2615378  0.9975769  0.7262165

 Al 
  0.2409806  0.2483008  0.4931451

 Al 
  0.9938592  0.4995545  0.4973207

 Al 
  0.9861071  0.7523687  0.7438778

 Al 
  0.2305851  0.4927999  0.7487699

 Al 
  0.2373930  0.7591010  0.4936946

 Al 
  0.5005235  0.4974692  0.0134028

 Al 
  0.4931340  0.7302002  0.2511435

 Al 
  0.7499307  0.5125786  0.2621170

 Al 
  0.7419967  0.7584352  0.0141750

 Al 
  0.4983256  0.0018229  0.5011720

 Al 
  0.4752587  0.2581283  0.7535233

 Al 
  0.7549490  0.0114697  0.7604784

 Al 
  0.7391503  0.2484011  0.5114809

 Al 
  0.4757512  0.4714754  0.5031966

 Al 
  0.5234951  0.7507487  0.7448555

 Al 
  0.7499332  0.5064960  0.7619363

 Al 
  0.7499406  0.7414237  0.4868187

