32 
charge = 0 
 Al 
  0.0217737  0.9899535  0.0125179

 Al 
  0.0080887  0.2594315  0.2605576

 Al 
  0.2783427  0.9921390  0.2563264

 Al 
  0.2428172  0.2690448  0.0035407

 Al 
  0.4999703  0.9880390  0.9898050

 Al 
  0.5135154  0.2310628  0.2409670

 Al 
  0.7644089  0.0083919  0.2420994

 Al 
  0.7679174  0.2403334  0.9945770

 Al 
  0.9850738  0.5074947  0.9906465

 Al 
  0.0141726  0.7529429  0.2353349

 Al 
  0.2602990  0.5032684  0.2585540

 Al 
  0.2641936  0.7339587  0.9842372

 Al 
  0.9888112  0.9999851  0.4959594

 Al 
  0.9920462  0.2493886  0.7575801

 Al 
  0.2579328  0.0077707  0.7322744

 Al 
  0.2388421  0.2530159  0.4935251

 Al 
  0.9903198  0.5006980  0.5019640

 Al 
  0.9905141  0.7605267  0.7588585

 Al 
  0.2306581  0.4926984  0.7475942

 Al 
  0.2292968  0.7553302  0.4945015

 Al 
  0.5044020  0.4944842  0.0075380

 Al 
  0.4845738  0.7327880  0.2556767

 Al 
  0.7468962  0.5036718  0.2585231

 Al 
  0.7453022  0.7595812  0.0125266

 Al 
  0.5141689  0.0097792  0.5035518

 Al 
  0.4812546  0.2531001  0.7503379

 Al 
  0.7539231  0.0112098  0.7648965

 Al 
  0.7342545  0.2579798  0.5044280

 Al 
  0.4918940  0.4705980  0.4992080

 Al 
  0.5131689  0.7473417  0.7466177

 Al 
  0.7494641  0.5097087  0.7563561

 Al 
  0.7417059  0.7542844  0.4889152

