32 
charge = 0 
 Al 
  0.0222811  0.9892679  0.0147146

 Al 
  0.0111356  0.2598089  0.2611975

 Al 
  0.2784503  0.9916242  0.2529021

 Al 
  0.2414286  0.2668110  0.9998701

 Al 
  0.4971115  0.9923803  0.9894028

 Al 
  0.5119586  0.2337644  0.2410042

 Al 
  0.7663346  0.0125068  0.2430548

 Al 
  0.7663618  0.2440077  0.9967551

 Al 
  0.9876863  0.5077286  0.9929422

 Al 
  0.0142765  0.7534936  0.2348609

 Al 
  0.2610527  0.4991993  0.2609351

 Al 
  0.2614475  0.7366603  0.9860366

 Al 
  0.9927318  0.0019739  0.4930276

 Al 
  0.9901168  0.2503428  0.7603064

 Al 
  0.2601109  0.0039577  0.7289751

 Al 
  0.2396144  0.2515494  0.4931043

 Al 
  0.9917182  0.5000285  0.4999158

 Al 
  0.9884201  0.7570170  0.7528068

 Al 
  0.2302163  0.4921378  0.7482897

 Al 
  0.2321444  0.7573771  0.4937392

 Al 
  0.5026657  0.4959717  0.0103844

 Al 
  0.4874994  0.7310678  0.2535617

 Al 
  0.7480174  0.5079959  0.2603782

 Al 
  0.7437070  0.7592570  0.0133805

 Al 
  0.5075009  0.0069588  0.5027127

 Al 
  0.4780914  0.2553079  0.7511695

 Al 
  0.7544540  0.0117408  0.7635476

 Al 
  0.7356146  0.2540357  0.5073561

 Al 
  0.4847990  0.4696871  0.5007908

 Al 
  0.5181303  0.7488268  0.7460782

 Al 
  0.7499975  0.5088152  0.7590008

 Al 
  0.7449235  0.7487006  0.4877989

