32 
charge = 0 
 Al 
  0.0215447  0.9906267  0.0111455

 Al 
  0.0063425  0.2591580  0.2599723

 Al 
  0.2779021  0.9925808  0.2579142

 Al 
  0.2435610  0.2698926  0.0054688

 Al 
  0.5013304  0.9860638  0.9900995

 Al 
  0.5141874  0.2300097  0.2408878

 Al 
  0.7633756  0.0061928  0.2417665

 Al 
  0.7684310  0.2387679  0.9937751

 Al 
  0.9839166  0.5073004  0.9897765

 Al 
  0.0139894  0.7524937  0.2358188

 Al 
  0.2595923  0.5050814  0.2572063

 Al 
  0.2654027  0.7327484  0.9833771

 Al 
  0.9869041  0.9990570  0.4974915

 Al 
  0.9932058  0.2488763  0.7559675

 Al 
  0.2565974  0.0094636  0.7341914

 Al 
  0.2385315  0.2535951  0.4937986

 Al 
  0.9896230  0.5011423  0.5030122

 Al 
  0.9916440  0.7622977  0.7617544

 Al 
  0.2310851  0.4931984  0.7471425

 Al 
  0.2280852  0.7541594  0.4951351

 Al 
  0.5053735  0.4936389  0.0059601

 Al 
  0.4834996  0.7339080  0.2568054

 Al 
  0.7463925  0.5013663  0.2574637

 Al 
  0.7461759  0.7596084  0.0120303

 Al 
  0.5174236  0.0109512  0.5039478

 Al 
  0.4831246  0.2519950  0.7501584

 Al 
  0.7536112  0.0107161  0.7653037

 Al 
  0.7340008  0.2598795  0.5030048

 Al 
  0.4954458  0.4716326  0.4984184

 Al 
  0.5104302  0.7465695  0.7467700

 Al 
  0.7490557  0.5099785  0.7548871

 Al 
  0.7402158  0.7570516  0.4895463

