32 
charge = 0 
 Al 
  0.0211697  0.9928395  0.0078424

 Al 
  0.0022598  0.2583610  0.2582248

 Al 
  0.2759900  0.9940139  0.2609883

 Al 
  0.2452082  0.2710150  0.0096579

 Al 
  0.5039478  0.9824179  0.9910128

 Al 
  0.5152752  0.2285134  0.2405054

 Al 
  0.7610774  0.0012425  0.2414064

 Al 
  0.7688827  0.2362581  0.9927516

 Al 
  0.9818586  0.5066259  0.9885909

 Al 
  0.0132234  0.7511782  0.2373150

 Al 
  0.2573115  0.5081976  0.2541198

 Al 
  0.2674583  0.7305802  0.9818103

 Al 
  0.9830899  0.9973417  0.5008081

 Al 
  0.9960448  0.2477959  0.7520667

 Al 
  0.2533340  0.0124734  0.7387407

 Al 
  0.2381219  0.2545357  0.4944037

 Al 
  0.9881120  0.5023873  0.5051940

 Al 
  0.9941698  0.7659151  0.7673840

 Al 
  0.2325071  0.4946834  0.7459594

 Al 
  0.2260495  0.7514665  0.4971883

 Al 
  0.5077447  0.4916539  0.0023192

 Al 
  0.4823437  0.7368521  0.2592978

 Al 
  0.7454953  0.4964519  0.2548983

 Al 
  0.7481486  0.7591666  0.0108138

 Al 
  0.5238181  0.0128261  0.5047522

 Al 
  0.4877184  0.2497748  0.7503775

 Al 
  0.7528600  0.0090590  0.7654312

 Al 
  0.7347594  0.2635266  0.5001844

 Al 
  0.5025494  0.4752933  0.4967477

 Al 
  0.5041421  0.7448802  0.7466969

 Al 
  0.7479023  0.5101777  0.7514826

 Al 
  0.7374288  0.7624944  0.4910277

