32 
charge = 0 
 Al 
  0.0212985  0.9917962  0.0092372

 Al 
  0.0039788  0.2587261  0.2590181

 Al 
  0.2769467  0.9933370  0.2597854

 Al 
  0.2445275  0.2706809  0.0079439

 Al 
  0.5029367  0.9838015  0.9905859

 Al 
  0.5148978  0.2289911  0.2407034

 Al 
  0.7620291  0.0033068  0.2414918

 Al 
  0.7688134  0.2371256  0.9930511

 Al 
  0.9826234  0.5069539  0.9889597

 Al 
  0.0136082  0.7517734  0.2366294

 Al 
  0.2583783  0.5070677  0.2554081

 Al 
  0.2667195  0.7313871  0.9823895

 Al 
  0.9845961  0.9979890  0.4994518

 Al 
  0.9948282  0.2482278  0.7537300

 Al 
  0.2547287  0.0113546  0.7368088

 Al 
  0.2382394  0.2541990  0.4941612

 Al 
  0.9887357  0.5018217  0.5043191

 Al 
  0.9931216  0.7644807  0.7651948

 Al 
  0.2318351  0.4940090  0.7464791

 Al 
  0.2267809  0.7525915  0.4962192

 Al 
  0.5067187  0.4924929  0.0038488

 Al 
  0.4826036  0.7355539  0.2582682

 Al 
  0.7458282  0.4984370  0.2560034

 Al 
  0.7473281  0.7594488  0.0113410

 Al 
  0.5213269  0.0121702  0.5044305

 Al 
  0.4857396  0.2506497  0.7501807

 Al 
  0.7531818  0.0098473  0.7655166

 Al 
  0.7342013  0.2621256  0.5012920

 Al 
  0.4997612  0.4735347  0.4974271

 Al 
  0.5067806  0.7455757  0.7468071

 Al 
  0.7484184  0.5101592  0.7529157

 Al 
  0.7384907  0.7603819  0.4904002

