32 
charge = 0 
 Al 
  0.0211388  0.9932157  0.0073932

 Al 
  0.0017041  0.2582323  0.2579513

 Al 
  0.2756287  0.9942577  0.2613534

 Al 
  0.2454235  0.2710794  0.0101963

 Al 
  0.5042461  0.9820145  0.9911663

 Al 
  0.5153718  0.2284058  0.2404275

 Al 
  0.7607730  0.0005767  0.2414002

 Al 
  0.7688679  0.2360353  0.9926947

 Al 
  0.9816420  0.5065046  0.9885105

 Al 
  0.0130761  0.7509727  0.2375538

 Al 
  0.2569316  0.5085082  0.2537053

 Al 
  0.2676563  0.7303500  0.9816507

 Al 
  0.9826320  0.9971561  0.5012351

 Al 
  0.9964445  0.2476647  0.7515197

 Al 
  0.2528773  0.0127914  0.7393731

 Al 
  0.2381045  0.2546297  0.4944755

 Al 
  0.9879115  0.5025853  0.5054638

 Al 
  0.9945065  0.7663494  0.7680375

 Al 
  0.2327484  0.4949161  0.7457849

 Al 
  0.2258514  0.7511064  0.4975385

 Al 
  0.5080899  0.4913804  0.0018229

 Al 
  0.4823326  0.7372927  0.2596258

 Al 
  0.7454012  0.4958381  0.2545270

 Al 
  0.7484110  0.7590404  0.0106368

 Al 
  0.5245607  0.0129994  0.5048512

 Al 
  0.4883768  0.2495087  0.7504740

 Al 
  0.7527536  0.0087731  0.7653582

 Al 
  0.7350205  0.2639362  0.4998503

 Al 
  0.5033860  0.4759381  0.4965348

 Al 
  0.5032882  0.7446587  0.7466326

 Al 
  0.7477254  0.5101653  0.7510185

 Al 
  0.7371182  0.7631182  0.4912343

