32 
charge = 0 
 Al 
  0.0213529  0.9914781  0.0097136

 Al 
  0.0045654  0.2588399  0.2592706

 Al 
  0.2772214  0.9931315  0.2593473

 Al 
  0.2442911  0.2705213  0.0073437

 Al 
  0.5025618  0.9843226  0.9904547

 Al 
  0.5147418  0.2292040  0.2407579

 Al 
  0.7623583  0.0040171  0.2415425

 Al 
  0.7687503  0.2374845  0.9931959

 Al 
  0.9829179  0.5070492  0.9891280

 Al 
  0.0137184  0.7519640  0.2364128

 Al 
  0.2587075  0.5066222  0.2558512

 Al 
  0.2664249  0.7316977  0.9826160

 Al 
  0.9851418  0.9982340  0.4989753

 Al 
  0.9944198  0.2483837  0.7542906

 Al 
  0.2551978  0.0109252  0.7361566

 Al 
  0.2382976  0.2540654  0.4940733

 Al 
  0.9889523  0.5016435  0.5040060

 Al 
  0.9927590  0.7639622  0.7643891

 Al 
  0.2316309  0.4937949  0.7466487

 Al 
  0.2270704  0.7529788  0.4959247

 Al 
  0.5063796  0.4927776  0.0043711

 Al 
  0.4827682  0.7351319  0.2579117

 Al 
  0.7459569  0.4991436  0.2563710

 Al 
  0.7470447  0.7595119  0.0115143

 Al 
  0.5204099  0.0119029  0.5043154

 Al 
  0.4850799  0.2509690  0.7501485

 Al 
  0.7532894  0.0100861  0.7654992

 Al 
  0.7340924  0.2616021  0.5016955

 Al 
  0.4987426  0.4730075  0.4976660

 Al 
  0.5076828  0.7458170  0.7468170

 Al 
  0.7485842  0.5101319  0.7534045

 Al 
  0.7388904  0.7595998  0.4901874

