32 
charge = 0 
 Al 
  0.0214123  0.9911774  0.0101926

 Al 
  0.0051557  0.2589501  0.2595144

 Al 
  0.2774726  0.9929360  0.2588882

 Al 
  0.2440510  0.2703369  0.0067286

 Al 
  0.5021682  0.9848745  0.9903297

 Al 
  0.5145723  0.2294453  0.2408074

 Al 
  0.7626937  0.0047349  0.2416056

 Al 
  0.7686649  0.2378781  0.9933642

 Al 
  0.9832310  0.5071395  0.9893198

 Al 
  0.0138174  0.7521472  0.2362049

 Al 
  0.2590194  0.5061420  0.2562992

 Al 
  0.2661069  0.7320281  0.9828560

 Al 
  0.9857099  0.9984951  0.4984889

 Al 
  0.9940127  0.2485434  0.7548525

 Al 
  0.2556680  0.0104661  0.7355020

 Al 
  0.2383669  0.2539206  0.4939830

 Al 
  0.9891713  0.5014702  0.5036830

 Al 
  0.9923915  0.7634238  0.7635451

 Al 
  0.2314378  0.4935870  0.7468170

 Al 
  0.2273860  0.7533699  0.4956450

 Al 
  0.5060418  0.4930647  0.0048983

 Al 
  0.4829724  0.7347149  0.2575479

 Al 
  0.7460943  0.4998688  0.2567373

 Al 
  0.7467576  0.7595589  0.0116875

 Al 
  0.5194520  0.0116108  0.5041966

 Al 
  0.4844228  0.2512994  0.7501337

 Al 
  0.7533971  0.0103101  0.7654584

 Al 
  0.7340218  0.2610527  0.5021162

 Al 
  0.4976808  0.4725150  0.4979110

 Al 
  0.5085936  0.7460646  0.7468145

 Al 
  0.7487463  0.5100936  0.7538971

 Al 
  0.7393112  0.7587830  0.4899745

