32 
charge = 0 
 Al 
  0.0210707  0.9962650  0.0045480

 Al 
  0.9980100  0.2571940  0.2559366

 Al 
  0.2725038  0.9962032  0.2634956

 Al 
  0.2468145  0.2709358  0.0135414

 Al 
  0.5058512  0.9799007  0.9924150

 Al 
  0.5156911  0.2282597  0.2397505

 Al 
  0.7587780  0.9961425  0.2416130

 Al 
  0.7682776  0.2353188  0.9927726

 Al 
  0.9806272  0.5054329  0.9884177

 Al 
  0.0117556  0.7494901  0.2393433

 Al 
  0.2539565  0.5098646  0.2509863

 Al 
  0.2684199  0.7292510  0.9810603

 Al 
  0.9799899  0.9962341  0.5039107

 Al 
  0.9991832  0.2469395  0.7478306

 Al 
  0.2498243  0.0143582  0.7437144

 Al 
  0.2382729  0.2550851  0.4948691

 Al 
  0.9865836  0.5041384  0.5070591

 Al 
  0.9967353  0.7687949  0.7716611

 Al 
  0.2346815  0.4965905  0.7445498

 Al 
  0.2250408  0.7488033  0.5003911

 Al 
  0.5105700  0.4895537  0.9985087

 Al 
  0.4832137  0.7405178  0.2617383

 Al 
  0.7449458  0.4921860  0.2518205

 Al 
  0.7501126  0.7576754  0.0093473

 Al 
  0.5286223  0.0137196  0.5054403

 Al 
  0.4930065  0.2479667  0.7515197

 Al 
  0.7519950  0.0064242  0.7642728

 Al 
  0.7378595  0.2660240  0.4979382

 Al 
  0.5080404  0.4812324  0.4951871

 Al 
  0.4976016  0.7432578  0.7457712

 Al 
  0.7464544  0.5098745  0.7479048

 Al 
  0.7355081  0.7663680  0.4926798

