32 
charge = 0 
 Al 
  0.0210646  0.9957811  0.0049205

 Al 
  0.9985199  0.2573598  0.2562361

 Al 
  0.2730187  0.9959000  0.2632271

 Al 
  0.2466264  0.2710188  0.0131070

 Al 
  0.5056705  0.9801346  0.9922170

 Al 
  0.5156799  0.2282189  0.2398619

 Al 
  0.7590528  0.9967601  0.2415561

 Al 
  0.7684125  0.2353386  0.9927157

 Al 
  0.9807213  0.5056111  0.9883867

 Al 
  0.0119784  0.7497055  0.2390748

 Al 
  0.2544156  0.5097483  0.2513601

 Al 
  0.2683753  0.7293562  0.9810851

 Al 
  0.9803129  0.9963282  0.5035580

 Al 
  0.9987971  0.2470212  0.7483466

 Al 
  0.2502450  0.0141973  0.7430969

 Al 
  0.2382159  0.2550369  0.4948245

 Al 
  0.9867680  0.5038958  0.5068598

 Al 
  0.9964259  0.7685077  0.7712366

 Al 
  0.2343782  0.4963480  0.7447280

 Al 
  0.2251002  0.7491102  0.4999381

 Al 
  0.5102049  0.4898062  0.9989703

 Al 
  0.4829897  0.7400376  0.2614536

 Al 
  0.7449916  0.4926427  0.2522264

 Al 
  0.7498824  0.7579241  0.0095404

 Al 
  0.5281570  0.0136602  0.5053661

 Al 
  0.4923370  0.2481573  0.7513341

 Al 
  0.7521063  0.0067979  0.7644869

 Al 
  0.7373459  0.2658061  0.4981709

 Al 
  0.5074934  0.4803871  0.4953666

 Al 
  0.4983912  0.7434434  0.7459408

 Al 
  0.7466400  0.5099339  0.7483392

 Al 
  0.7356826  0.7660215  0.4924694

