32 
charge = 0 
 Al 
  0.0210769  0.9944297  0.0061074

 Al 
  0.0000817  0.2578202  0.2571086

 Al 
  0.2744208  0.9950411  0.2623509

 Al 
  0.2460435  0.2711425  0.0117185

 Al 
  0.5050356  0.9809663  0.9916625

 Al 
  0.5155821  0.2282177  0.2401663

 Al 
  0.7598931  0.9986350  0.2414373

 Al 
  0.7687157  0.2355576  0.9926316

 Al 
  0.9811037  0.5060938  0.9883768

 Al 
  0.0125749  0.7503453  0.2382951

 Al 
  0.2557237  0.5092533  0.2525061

 Al 
  0.2681154  0.7297745  0.9812819

 Al 
  0.9813846  0.9966833  0.5024454

 Al 
  0.9976313  0.2473108  0.7499134

 Al 
  0.2515371  0.0135946  0.7412455

 Al 
  0.2381120  0.2548624  0.4946686

 Al 
  0.9873286  0.5032127  0.5062064

 Al 
  0.9954841  0.7675226  0.7697837

 Al 
  0.2335243  0.4956265  0.7452589

 Al 
  0.2253874  0.7500730  0.4986733

 Al 
  0.5091344  0.4905797  0.0003725

 Al 
  0.4825108  0.7386404  0.2605675

 Al 
  0.7451648  0.4941389  0.2533983

 Al 
  0.7491684  0.7585602  0.0100985

 Al 
  0.5265371  0.0134040  0.5051247

 Al 
  0.4903507  0.2487860  0.7508465

 Al 
  0.7524318  0.0078412  0.7650129

 Al 
  0.7360217  0.2649943  0.4989456

 Al 
  0.5056260  0.4780345  0.4959297

 Al 
  0.5007970  0.7440288  0.7463541

 Al 
  0.7471883  0.5100799  0.7496572

 Al 
  0.7363138  0.7647480  0.4918507

