32 
charge = 0 
 Al 
  0.0210806  0.9967675  0.0041879

 Al 
  0.9975026  0.2570207  0.2556346

 Al 
  0.2719643  0.9965150  0.2637555

 Al 
  0.2470001  0.2708344  0.0139647

 Al 
  0.5060170  0.9796866  0.9926217

 Al 
  0.5156898  0.2283191  0.2396342

 Al 
  0.7585045  0.9955287  0.2416774

 Al 
  0.7681266  0.2353237  0.9928432

 Al 
  0.9805505  0.5052436  0.9884622

 Al 
  0.0115205  0.7492736  0.2396181

 Al 
  0.2534850  0.5099574  0.2506151

 Al 
  0.2684422  0.7291607  0.9810566

 Al 
  0.9796842  0.9961512  0.5042535

 Al 
  0.9995681  0.2468665  0.7473157

 Al 
  0.2494084  0.0145005  0.7443344

 Al 
  0.2383409  0.2551285  0.4949111

 Al 
  0.9864017  0.5043896  0.5072509

 Al 
  0.9970447  0.7690622  0.7720596

 Al 
  0.2349946  0.4968318  0.7443703

 Al 
  0.2250000  0.7485038  0.5008601

 Al 
  0.5109413  0.4893025  0.9980496

 Al 
  0.4834699  0.7410066  0.2620180

 Al 
  0.7449062  0.4917479  0.2514046

 Al 
  0.7503391  0.7574068  0.0091505

 Al 
  0.5290530  0.0137666  0.5055121

 Al 
  0.4936835  0.2477835  0.7517190

 Al 
  0.7518823  0.0060356  0.7640401

 Al 
  0.7384090  0.2662183  0.4977179

 Al 
  0.5085528  0.4821086  0.4950101

 Al 
  0.4968170  0.7430758  0.7455844

 Al 
  0.7462675  0.5098077  0.7474729

 Al 
  0.7353522  0.7666762  0.4928939

