32 
charge = 0 
 Al 
  0.0212687  0.0022994  0.0015272

 Al 
  0.9929731  0.2550443  0.2526669

 Al 
  0.2657616  0.9997413  0.2657764

 Al 
  0.2486671  0.2689595  0.0172331

 Al 
  0.5068771  0.9785555  0.9949111

 Al 
  0.5152183  0.2297275  0.2383818

 Al 
  0.7560430  0.9899102  0.2425647

 Al 
  0.7659646  0.2363893  0.9939619

 Al 
  0.9806495  0.5029813  0.9893681

 Al 
  0.0086988  0.7472885  0.2424100

 Al 
  0.2485929  0.5098819  0.2472836

 Al 
  0.2677009  0.7290555  0.9821717

 Al 
  0.9776521  0.9958814  0.5070331

 Al 
  0.0030531  0.2466388  0.7426551

 Al 
  0.2459136  0.0150475  0.7502079

 Al 
  0.2395587  0.2553896  0.4951983

 Al 
  0.9847817  0.5071469  0.5086530

 Al 
  0.9999072  0.7705460  0.7744864

 Al 
  0.2383508  0.4989505  0.7426786

 Al 
  0.2253997  0.7461240  0.5059453

 Al 
  0.5146082  0.4871095  0.9938926

 Al 
  0.4871355  0.7459853  0.2643322

 Al 
  0.7447750  0.4885996  0.2470299

 Al 
  0.7522598  0.7540097  0.0070615

 Al 
  0.5313326  0.0138347  0.5060542

 Al 
  0.5002797  0.2463987  0.7540060

 Al 
  0.7507450  0.0017908  0.7611046

 Al 
  0.7450485  0.2668729  0.4961920

 Al 
  0.5117903  0.4915908  0.4934978

 Al 
  0.4897295  0.7416366  0.7430424

 Al 
  0.7444879  0.5089674  0.7435412

 Al 
  0.7347730  0.7676439  0.4951339

