32 
charge = 0 
 Al 
  0.0212007  0.0002351  0.0022858

 Al 
  0.9944867  0.2557980  0.2537102

 Al 
  0.2681253  0.9985830  0.2651540

 Al 
  0.2481016  0.2697837  0.0162504

 Al 
  0.5067125  0.9787820  0.9940535

 Al 
  0.5154671  0.2290802  0.2388384

 Al 
  0.7568747  0.9918160  0.2422145

 Al 
  0.7668531  0.2358423  0.9935040

 Al 
  0.9804478  0.5038612  0.9889721

 Al 
  0.0097953  0.7479568  0.2414051

 Al 
  0.2503626  0.5100750  0.2484023

 Al 
  0.2681414  0.7289466  0.9815442

 Al 
  0.9781842  0.9958777  0.5061631

 Al 
  0.0018873  0.2466177  0.7442255

 Al 
  0.2470212  0.0150017  0.7481771

 Al 
  0.2390216  0.2553203  0.4951141

 Al 
  0.9853163  0.5061148  0.5082484

 Al 
  0.9989283  0.7702440  0.7739010

 Al 
  0.2371145  0.4982674  0.7432602

 Al 
  0.2251126  0.7468504  0.5040703

 Al 
  0.5133125  0.4878261  0.9952948

 Al 
  0.4856455  0.7441921  0.2636045

 Al 
  0.7447762  0.4894980  0.2486374

 Al 
  0.7516422  0.7553512  0.0078338

 Al 
  0.5308970  0.0138632  0.5058920

 Al 
  0.4979555  0.2468170  0.7531471

 Al 
  0.7511522  0.0033649  0.7622444

 Al 
  0.7424917  0.2668692  0.4966128

 Al 
  0.5109660  0.4880959  0.4939929

 Al 
  0.4921130  0.7420746  0.7440721

 Al 
  0.7451005  0.5092953  0.7448703

 Al 
  0.7347928  0.7676984  0.4943047

