32 
charge = 0 
 Al 
  0.0212873  0.0030395  0.0013069

 Al 
  0.9924694  0.2547696  0.2523068

 Al 
  0.2649040  0.0001448  0.2659732

 Al 
  0.2488602  0.2686389  0.0175350

 Al 
  0.5069056  0.9785110  0.9952193

 Al 
  0.5151156  0.2299849  0.2382221

 Al 
  0.7557621  0.9892679  0.2426910

 Al 
  0.7656304  0.2366096  0.9941278

 Al 
  0.9807584  0.5026570  0.9895178

 Al 
  0.0082954  0.7470645  0.2427627

 Al 
  0.2479716  0.5097829  0.2469073

 Al 
  0.2675103  0.7291260  0.9824452

 Al 
  0.9775098  0.9959024  0.5073103

 Al 
  0.0034392  0.2466710  0.7421279

 Al 
  0.2455621  0.0150339  0.7509034

 Al 
  0.2397703  0.2554094  0.4952267

 Al 
  0.9846060  0.5075194  0.5087743

 Al 
  0.0002388  0.7705992  0.7746312

 Al 
  0.2387914  0.4991671  0.7424818

 Al 
  0.2255297  0.7459000  0.5066086

 Al 
  0.5150562  0.4868769  0.9934211

 Al 
  0.4876887  0.7466177  0.2645624

 Al 
  0.7447824  0.4883347  0.2464569

 Al 
  0.7524590  0.7535159  0.0067831

 Al 
  0.5313994  0.0138199  0.5061049

 Al 
  0.5010866  0.2462663  0.7543092

 Al 
  0.7506039  0.0012289  0.7606913

 Al 
  0.7459730  0.2668247  0.4960707

 Al 
  0.5120118  0.4928283  0.4933333

 Al 
  0.4889312  0.7415017  0.7426575

 Al 
  0.7442812  0.5088473  0.7430932

 Al 
  0.7348089  0.7675363  0.4954346

