32 
charge = 0 
 Al 
  0.0212477  0.0015853  0.0017635

 Al 
  0.9934780  0.2553067  0.2530209

 Al 
  0.2665846  0.9993466  0.2655735

 Al 
  0.2484766  0.2692577  0.0169187

 Al 
  0.5068363  0.9786149  0.9946129

 Al 
  0.5153111  0.2294911  0.2385377

 Al 
  0.7563215  0.9905500  0.2424434

 Al 
  0.7662801  0.2361863  0.9938010

 Al 
  0.9805616  0.5032907  0.9892258

 Al 
  0.0090837  0.7475113  0.2420660

 Al 
  0.2491981  0.5099636  0.2476573

 Al 
  0.2678704  0.7290023  0.9819303

 Al 
  0.9778117  0.9958690  0.5067497

 Al 
  0.0026645  0.2466190  0.7431810

 Al 
  0.2462749  0.0150463  0.7495223

 Al 
  0.2393644  0.2553673  0.4951710

 Al 
  0.9849587  0.5067880  0.5085256

 Al 
  0.9995768  0.7704680  0.7743169

 Al 
  0.2379251  0.4987278  0.7428741

 Al 
  0.2252871  0.7463579  0.5053005

 Al 
  0.5141676  0.4873459  0.9943617

 Al 
  0.4866108  0.7453715  0.2640958

 Al 
  0.7447701  0.4888817  0.2475830

 Al 
  0.7520568  0.7544812  0.0073288

 Al 
  0.5312249  0.0138471  0.5060022

 Al 
  0.4994889  0.2465336  0.7537102

 Al 
  0.7508849  0.0023340  0.7615007

 Al 
  0.7441587  0.2668952  0.4963220

 Al 
  0.5115427  0.4903891  0.4936624

 Al 
  0.4905265  0.7417776  0.7434075

 Al 
  0.7446946  0.5090825  0.7439867

 Al 
  0.7347582  0.7677058  0.4948456

