32 
charge = 0 
 Al 
  0.0213034  0.0062287  0.0006200

 Al 
  0.9904757  0.2535617  0.2508217

 Al 
  0.2611393  0.0018044  0.2667108

 Al 
  0.2496609  0.2671242  0.0185820

 Al 
  0.5068858  0.9784936  0.9965546

 Al 
  0.5146107  0.2312175  0.2375736

 Al 
  0.7546285  0.9866801  0.2432256

 Al 
  0.7641033  0.2376516  0.9948332

 Al 
  0.9814118  0.5012091  0.9901960

 Al 
  0.0064898  0.7461871  0.2442565

 Al 
  0.2453554  0.5092359  0.2454086

 Al 
  0.2665276  0.7295790  0.9838894

 Al 
  0.9771410  0.9960930  0.5083362

 Al 
  0.0049478  0.2469383  0.7400240

 Al 
  0.2442886  0.0148495  0.7537387

 Al 
  0.2407839  0.2554898  0.4953455

 Al 
  0.9839377  0.5091443  0.5091753

 Al 
  0.0015841  0.7705559  0.7749542

 Al 
  0.2406762  0.4999493  0.7416922

 Al 
  0.2262215  0.7451215  0.5094092

 Al 
  0.5168977  0.4859945  0.9915363

 Al 
  0.4901366  0.7492958  0.2653953

 Al 
  0.7448592  0.4874635  0.2439991

 Al 
  0.7532139  0.7513118  0.0055653

 Al 
  0.5312584  0.0137580  0.5062819

 Al 
  0.5044527  0.2457712  0.7555814

 Al 
  0.7500074  0.9988293  0.7589191

 Al 
  0.7499765  0.2663952  0.4956933

 Al 
  0.5126355  0.4980669  0.4926823

 Al 
  0.4857557  0.7410425  0.7409287

 Al 
  0.7434483  0.5083226  0.7412999

 Al 
  0.7351864  0.7666378  0.4967687

