32 
charge = 0 
 Al 
  0.0211722  0.0096542  0.0002797

 Al 
  0.9886107  0.2522115  0.2493255

 Al 
  0.2569613  0.0034602  0.2673543

 Al 
  0.2504950  0.2652926  0.0193171

 Al 
  0.5066643  0.9787114  0.9980038

 Al 
  0.5139758  0.2327360  0.2369660

 Al 
  0.7535196  0.9841716  0.2437627

 Al 
  0.7623373  0.2388657  0.9955287

 Al 
  0.9824229  0.4995644  0.9909509

 Al 
  0.0044292  0.7453740  0.2458282

 Al 
  0.2426328  0.5084884  0.2439854

 Al 
  0.2652282  0.7303005  0.9858794

 Al 
  0.9771249  0.9964371  0.5091939

 Al 
  0.0063140  0.2474370  0.7380117

 Al 
  0.2433122  0.0144745  0.7565554

 Al 
  0.2420536  0.2555777  0.4954804

 Al 
  0.9833721  0.5109413  0.5094228

 Al 
  0.0028971  0.7700807  0.7748663

 Al 
  0.2426959  0.5005198  0.7409448

 Al 
  0.2271558  0.7445782  0.5122939

 Al 
  0.5187305  0.4852557  0.9897196

 Al 
  0.4928271  0.7521385  0.2660301

 Al 
  0.7449978  0.4869289  0.2413705

 Al 
  0.7538600  0.7488379  0.0042015

 Al 
  0.5304391  0.0137320  0.5064118

 Al 
  0.5079414  0.2453195  0.7568549

 Al 
  0.7493837  0.9962786  0.7570628

 Al 
  0.7542547  0.2656007  0.4954990

 Al 
  0.5128360  0.5035172  0.4920449

 Al 
  0.4827471  0.7407542  0.7389894

 Al 
  0.7426551  0.5077434  0.7395735

 Al 
  0.7359524  0.7650141  0.4982934

