32 
charge = 0 
 Al 
  0.0203876  0.0154423  0.0005247

 Al 
  0.9860564  0.2497587  0.2469952

 Al 
  0.2494394  0.0059378  0.2682033

 Al 
  0.2519702  0.2617086  0.0196587

 Al 
  0.5059044  0.9795320  0.0004938

 Al 
  0.5126714  0.2357915  0.2362829

 Al 
  0.7518526  0.9804750  0.2445473

 Al 
  0.7590676  0.2409608  0.9964371

 Al 
  0.9849228  0.4965460  0.9922009

 Al 
  0.0005680  0.7442713  0.2484803

 Al 
  0.2381503  0.5069266  0.2420202

 Al 
  0.2624684  0.7320690  0.9903483

 Al 
  0.9780085  0.9972959  0.5101257

 Al 
  0.0080726  0.2487959  0.7351344

 Al 
  0.2426043  0.0135117  0.7608782

 Al 
  0.2447094  0.2558066  0.4957490

 Al 
  0.9828523  0.5141874  0.5094253

 Al 
  0.0048413  0.7682788  0.7738664

 Al 
  0.2461735  0.5007685  0.7399547

 Al 
  0.2291384  0.7443617  0.5167467

 Al 
  0.5214148  0.4845651  0.9870155

 Al 
  0.4973887  0.7570182  0.2664794

 Al 
  0.7453567  0.4868843  0.2369586

 Al 
  0.7546087  0.7443938  0.0016596

 Al 
  0.5275444  0.0138694  0.5064960

 Al 
  0.5137221  0.2446117  0.7586741

 Al 
  0.7483281  0.9919818  0.7541495

 Al 
  0.7613175  0.2635439  0.4955906

 Al 
  0.5122246  0.5122630  0.4909918

 Al 
  0.4785283  0.7408396  0.7356715

 Al 
  0.7415722  0.5067175  0.7370415

 Al 
  0.7381367  0.7608831  0.5011967

