32 
charge = 0 
 Al 
  0.0195485  0.0182726  0.0010445

 Al 
  0.9851233  0.2484221  0.2459532

 Al 
  0.2453876  0.0069601  0.2685313

 Al 
  0.2528056  0.2596493  0.0192899

 Al 
  0.5053327  0.9801718  0.0017524

 Al 
  0.5118756  0.2376058  0.2362235

 Al 
  0.7511460  0.9789528  0.2448542

 Al 
  0.7573177  0.2419274  0.9966833

 Al 
  0.9866665  0.4949025  0.9927553

 Al 
  0.9984134  0.7438753  0.2498069

 Al 
  0.2359747  0.5060047  0.2413346

 Al 
  0.2607730  0.7332694  0.9932342

 Al 
  0.9790060  0.9978417  0.5103114

 Al 
  0.0086530  0.2497711  0.7340243

 Al 
  0.2428085  0.0128682  0.7627927

 Al 
  0.2463702  0.2560034  0.4959086

 Al 
  0.9829154  0.5159460  0.5091864

 Al 
  0.0056507  0.7668049  0.7729469

 Al 
  0.2479679  0.5004307  0.7396626

 Al 
  0.2303190  0.7446810  0.5186055

 Al 
  0.5224172  0.4846109  0.9858410

 Al 
  0.4995780  0.7595280  0.2663197

 Al 
  0.7456054  0.4873298  0.2348337

 Al 
  0.7547993  0.7420511  0.0002190

 Al 
  0.5252463  0.0140612  0.5064527

 Al 
  0.5165623  0.2442305  0.7593114

 Al 
  0.7477885  0.9898396  0.7528885

 Al 
  0.7646478  0.2621294  0.4958381

 Al 
  0.5113843  0.5162616  0.4904114

 Al 
  0.4769393  0.7412863  0.7341394

 Al 
  0.7412133  0.5061668  0.7359809

 Al 
  0.7397616  0.7581432  0.5028575

