32 
charge = 0 
 Al 
  0.0200064  0.0169113  0.0007574

 Al 
  0.9855416  0.2490805  0.2464457

 Al 
  0.2473813  0.0064885  0.2683815

 Al 
  0.2523873  0.2606727  0.0195250

 Al 
  0.5056272  0.9798401  0.0011423

 Al 
  0.5122766  0.2366974  0.2362197

 Al 
  0.7514752  0.9796557  0.2447144

 Al 
  0.7581741  0.2414732  0.9965868

 Al 
  0.9857705  0.4957118  0.9924967

 Al 
  0.9994802  0.7440510  0.2491634

 Al 
  0.2370217  0.5064650  0.2416341

 Al 
  0.2616269  0.7326556  0.9917702

 Al 
  0.9784652  0.9975682  0.5102483

 Al 
  0.0084006  0.2492698  0.7345280

 Al 
  0.2426538  0.0131961  0.7618893

 Al 
  0.2455299  0.2558982  0.4958294

 Al 
  0.9828474  0.5150797  0.5093263

 Al 
  0.0052745  0.7675759  0.7734320

 Al 
  0.2470917  0.5006435  0.7397814

 Al 
  0.2297300  0.7444817  0.5177479

 Al 
  0.5219717  0.4845453  0.9863930

 Al 
  0.4985310  0.7583040  0.2664373

 Al 
  0.7454779  0.4870675  0.2358522

 Al 
  0.7547250  0.7431959  0.0009356

 Al 
  0.5264442  0.0139560  0.5064824

 Al 
  0.5151911  0.2444211  0.7590342

 Al 
  0.7480508  0.9908767  0.7534776

 Al 
  0.7630600  0.2628533  0.4956995

 Al 
  0.5118459  0.5143681  0.4907022

 Al 
  0.4776546  0.7410252  0.7348597

 Al 
  0.7413668  0.5064378  0.7364747

 Al 
  0.7389201  0.7595317  0.5020321

