32 
charge = 0 
 Al 
  0.0197874  0.0176056  0.0008948

 Al 
  0.9853200  0.2487488  0.2461920

 Al 
  0.2463764  0.0067348  0.2684595

 Al 
  0.2525964  0.2601592  0.0194198

 Al 
  0.5054824  0.9800022  0.0014517

 Al 
  0.5120774  0.2371516  0.2362136

 Al 
  0.7513044  0.9792894  0.2447874

 Al 
  0.7577410  0.2417071  0.9966425

 Al 
  0.9862123  0.4953035  0.9926316

 Al 
  0.9989431  0.7439582  0.2494901

 Al 
  0.2364883  0.5062336  0.2414744

 Al 
  0.2612012  0.7329588  0.9924967

 Al 
  0.9787251  0.9977043  0.5102879

 Al 
  0.0085355  0.2495174  0.7342632

 Al 
  0.2427182  0.0130328  0.7623546

 Al 
  0.2459482  0.2559490  0.4958690

 Al 
  0.9828721  0.5155166  0.5092619

 Al 
  0.0054700  0.7671996  0.7731956

 Al 
  0.2475348  0.5005470  0.7397159

 Al 
  0.2300257  0.7445721  0.5181959

 Al 
  0.5222093  0.4845676  0.9861084

 Al 
  0.4990669  0.7589228  0.2663878

 Al 
  0.7455411  0.4871900  0.2353312

 Al 
  0.7547671  0.7426167  0.0005767

 Al 
  0.5258576  0.0140067  0.5064700

 Al 
  0.5158891  0.2443258  0.7591840

 Al 
  0.7479184  0.9903507  0.7531719

 Al 
  0.7638731  0.2624944  0.4957651

 Al 
  0.5116257  0.5153408  0.4905574

 Al 
  0.4772771  0.7411465  0.7344872

 Al 
  0.7412838  0.5063017  0.7362197

 Al 
  0.7393334  0.7588411  0.5024454

