32 
charge = 0 
 Al 
  0.0143557  0.0243849  0.0035951

 Al 
  0.9844884  0.2446030  0.2440634

 Al 
  0.2334996  0.0081407  0.2689434

 Al 
  0.2558883  0.2531644  0.0153606

 Al 
  0.5029974  0.9829885  0.0049676

 Al 
  0.5089859  0.2438518  0.2380513

 Al 
  0.7501126  0.9772004  0.2452849

 Al 
  0.7526880  0.2433741  0.9961141

 Al 
  0.9939050  0.4899968  0.9934483

 Al 
  0.9918457  0.7437119  0.2530159

 Al 
  0.2308908  0.5028798  0.2414905

 Al 
  0.2547312  0.7381528  0.0040221

 Al 
  0.9846901  0.9995285  0.5095874

 Al 
  0.0088189  0.2536236  0.7332125

 Al 
  0.2460806  0.0104388  0.7664027

 Al 
  0.2525717  0.2571296  0.4964977

 Al 
  0.9853943  0.5208616  0.5073387

 Al 
  0.0069068  0.7601431  0.7688048

 Al 
  0.2530444  0.4969531  0.7403383

 Al 
  0.2340169  0.7479741  0.5205485

 Al 
  0.5222736  0.4872977  0.9836506

 Al 
  0.5040654  0.7661960  0.2638149

 Al 
  0.7465930  0.4907938  0.2303933

 Al 
  0.7544082  0.7357161  0.9955262

 Al 
  0.5150958  0.0150995  0.5058178

 Al 
  0.5234035  0.2428506  0.7589612

 Al 
  0.7463987  0.9844327  0.7508923

 Al 
  0.7713715  0.2565715  0.4972477

 Al 
  0.5062980  0.5237600  0.4880934

 Al 
  0.4760396  0.7450213  0.7321989

 Al 
  0.7415239  0.5043525  0.7342978

 Al 
  0.7466153  0.7488058  0.5080194

