32 
charge = 0 
 Al 
  0.0154460  0.0237562  0.0031731

 Al 
  0.9843721  0.2451376  0.2442107

 Al 
  0.2352730  0.0081692  0.2689434

 Al 
  0.2553388  0.2541718  0.0162504

 Al 
  0.5034082  0.9824613  0.0045381

 Al 
  0.5094822  0.2428073  0.2375464

 Al 
  0.7501559  0.9771459  0.2452552

 Al 
  0.7533055  0.2433196  0.9963257

 Al 
  0.9925957  0.4907430  0.9934558

 Al 
  0.9928457  0.7436290  0.2526273

 Al 
  0.2315059  0.5034033  0.2412257

 Al 
  0.2557584  0.7372605  0.0021682

 Al 
  0.9835441  0.9992835  0.5098003

 Al 
  0.0089352  0.2529640  0.7330652

 Al 
  0.2453431  0.0108596  0.7660660

 Al 
  0.2514987  0.2568982  0.4963913

 Al 
  0.9847446  0.5201945  0.5077348

 Al 
  0.0068264  0.7613744  0.7695522

 Al 
  0.2522870  0.4977266  0.7400599

 Al 
  0.2334488  0.7472254  0.5206623

 Al 
  0.5226672  0.4866046  0.9838510

 Al 
  0.5036199  0.7652913  0.2643990

 Al 
  0.7464197  0.4900611  0.2308413

 Al 
  0.7545617  0.7365910  0.9962811

 Al 
  0.5169558  0.0149077  0.5059737

 Al 
  0.5225484  0.2430919  0.7592768

 Al 
  0.7465806  0.9851493  0.7510173

 Al 
  0.7707193  0.2575467  0.4969841

 Al 
  0.5073387  0.5231053  0.4885340

 Al 
  0.4757562  0.7441946  0.7321506

 Al 
  0.7413222  0.5046668  0.7344018

 Al 
  0.7453963  0.7502624  0.5072397

