32 
charge = 0 
 Al 
  0.0159460  0.0233974  0.0029615

 Al 
  0.9843411  0.2454124  0.2443047

 Al 
  0.2361616  0.0081555  0.2689335

 Al 
  0.2550777  0.2546706  0.0166551

 Al 
  0.5036063  0.9822138  0.0043166

 Al 
  0.5097211  0.2423024  0.2373261

 Al 
  0.7501931  0.9771657  0.2452379

 Al 
  0.7536261  0.2432701  0.9964160

 Al 
  0.9919719  0.4911143  0.9934434

 Al 
  0.9933444  0.7436018  0.2524182

 Al 
  0.2318338  0.5036558  0.2411267

 Al 
  0.2562546  0.7368385  0.0012747

 Al 
  0.9830120  0.9991585  0.5098955

 Al 
  0.0089760  0.2526434  0.7330293

 Al 
  0.2450040  0.0110613  0.7658705

 Al 
  0.2509814  0.2567905  0.4963418

 Al 
  0.9844612  0.5198468  0.5079154

 Al 
  0.0067732  0.7619586  0.7699099

 Al 
  0.2519096  0.4980805  0.7399460

 Al 
  0.2331667  0.7468863  0.5206623

 Al 
  0.5228095  0.4862989  0.9839674

 Al 
  0.5033637  0.7648235  0.2646626

 Al 
  0.7463356  0.4897233  0.2310962

 Al 
  0.7546260  0.7370390  0.9966512

 Al 
  0.5178407  0.0148161  0.5060418

 Al 
  0.5220967  0.2432070  0.7593956

 Al 
  0.7466759  0.9855205  0.7511027

 Al 
  0.7703418  0.2580157  0.4968566

 Al 
  0.5078214  0.5227142  0.4887382

 Al 
  0.4756732  0.7438171  0.7321779

 Al 
  0.7412442  0.5048154  0.7344748

 Al 
  0.7448097  0.7509888  0.5068487

