32 
charge = 0 
 Al 
  0.0176749  0.0216796  0.0021311

 Al 
  0.9844104  0.2465608  0.2448084

 Al 
  0.2397468  0.0079068  0.2688382

 Al 
  0.2541099  0.2566494  0.0180065

 Al 
  0.5043476  0.9813116  0.0033761

 Al 
  0.5106245  0.2403668  0.2366566

 Al 
  0.7504430  0.9775382  0.2451376

 Al 
  0.7549911  0.2429187  0.9966660

 Al 
  0.9896639  0.4925969  0.9932912

 Al 
  0.9953381  0.7435931  0.2514888

 Al 
  0.2332917  0.5046198  0.2409534

 Al 
  0.2581370  0.7352879  0.9978875

 Al 
  0.9811358  0.9986461  0.5101901

 Al 
  0.0090156  0.2514220  0.7331295

 Al 
  0.2438592  0.0118249  0.7649003

 Al 
  0.2490335  0.2564180  0.4961574

 Al 
  0.9835800  0.5183729  0.5085392

 Al 
  0.0064613  0.7641033  0.7712428

 Al 
  0.2503923  0.4992773  0.7396515

 Al 
  0.2320417  0.7457552  0.5202861

 Al 
  0.5230348  0.4853386  0.9845565

 Al 
  0.5021274  0.7628508  0.2655388

 Al 
  0.7460237  0.4885525  0.2323301

 Al 
  0.7547993  0.7389176  0.9980929

 Al 
  0.5210992  0.0144745  0.5062633

 Al 
  0.5201215  0.2436414  0.7596319

 Al 
  0.7470855  0.9870996  0.7516014

 Al 
  0.7684941  0.2597718  0.4963925

 Al 
  0.5095082  0.5207044  0.4894745

 Al 
  0.4757252  0.7425462  0.7326098

 Al 
  0.7410697  0.5053723  0.7348993

 Al 
  0.7426179  0.7538785  0.5052733

