32 
charge = 0 
 Al 
  0.0164187  0.0230088  0.0027499

 Al 
  0.9843300  0.2456933  0.2444112

 Al 
  0.2370514  0.0081209  0.2689186

 Al 
  0.2548253  0.2551668  0.0170313

 Al 
  0.5037981  0.9819749  0.0040901

 Al 
  0.5099550  0.2418061  0.2371281

 Al 
  0.7502401  0.9772152  0.2452181

 Al 
  0.7539552  0.2432058  0.9964952

 Al 
  0.9913668  0.4914843  0.9934211

 Al 
  0.9938419  0.7435857  0.2522004

 Al 
  0.2321766  0.5039033  0.2410512

 Al 
  0.2567385  0.7364314  0.0004010

 Al 
  0.9825046  0.9990322  0.5099822

 Al 
  0.0090045  0.2523279  0.7330169

 Al 
  0.2446859  0.0112581  0.7656576

 Al 
  0.2504777  0.2566903  0.4962935

 Al 
  0.9842038  0.5194891  0.5080862

 Al 
  0.0067101  0.7625229  0.7702589

 Al 
  0.2515321  0.4984122  0.7398483

 Al 
  0.2328857  0.7465695  0.5206240

 Al 
  0.5229159  0.4860205  0.9840973

 Al 
  0.5030877  0.7643458  0.2649089

 Al 
  0.7462551  0.4894028  0.2313734

 Al 
  0.7546817  0.7374957  0.9970162

 Al 
  0.5186959  0.0147270  0.5061049

 Al 
  0.5216289  0.2433196  0.7594896

 Al 
  0.7467749  0.9859005  0.7512029

 Al 
  0.7699309  0.2584711  0.4967341

 Al 
  0.5082793  0.5222786  0.4889350

 Al 
  0.4756287  0.7434644  0.7322385

 Al 
  0.7411799  0.5049589  0.7345602

 Al 
  0.7442391  0.7517140  0.5064564

