32 
charge = 0 
 Al 
  0.0096022  0.0255445  0.0049094

 Al 
  0.9854698  0.2430003  0.2440201

 Al 
  0.2273576  0.0074303  0.2687008

 Al 
  0.2581209  0.2495409  0.0113757

 Al 
  0.5014059  0.9852099  0.0063289

 Al 
  0.5070380  0.2478887  0.2405376

 Al 
  0.7502686  0.9784478  0.2453616

 Al 
  0.7507821  0.2431142  0.9950931

 Al 
  0.9991250  0.4873274  0.9930994

 Al 
  0.9883075  0.7443283  0.2540221

 Al 
  0.2292015  0.5008205  0.2431501

 Al 
  0.2506980  0.7418420  0.0111851

 Al 
  0.9895525  0.0003465  0.5086902

 Al 
  0.0080875  0.2560702  0.7345218

 Al 
  0.2492166  0.0087954  0.7670363

 Al 
  0.2567311  0.2581122  0.4969544

 Al 
  0.9886379  0.5227439  0.5056037

 Al 
  0.0069403  0.7551965  0.7658854

 Al 
  0.2557980  0.4936377  0.7418618

 Al 
  0.2360910  0.7513415  0.5189409

 Al 
  0.5196612  0.4906119  0.9833201

 Al 
  0.5049403  0.7689793  0.2612098

 Al 
  0.7472699  0.4939186  0.2295196

 Al 
  0.7536261  0.7329266  0.9927182

 Al 
  0.5076457  0.0158086  0.5050666

 Al 
  0.5258539  0.2419039  0.7569935

 Al 
  0.7458752  0.9821940  0.7508725

 Al 
  0.7725410  0.2527400  0.4982649

 Al 
  0.5018489  0.5247030  0.4862222

 Al 
  0.4783006  0.7486585  0.7335169

 Al 
  0.7427132  0.5030209  0.7343609

 Al 
  0.7512920  0.7437973  0.5106579

