32 
charge = 0 
 Al 
  0.0118125  0.0252624  0.0043946

 Al 
  0.9849426  0.2436228  0.2439421

 Al 
  0.2299626  0.0078499  0.2688580

 Al 
  0.2571061  0.2511089  0.0132407

 Al 
  0.5021150  0.9841840  0.0057745

 Al 
  0.5079117  0.2460868  0.2393372

 Al 
  0.7501448  0.9777041  0.2453282

 Al 
  0.7515457  0.2433073  0.9955770

 Al 
  0.9967761  0.4884783  0.9933085

 Al 
  0.9898248  0.7440028  0.2536669

 Al 
  0.2298327  0.5017474  0.2423011

 Al 
  0.2525073  0.7401527  0.0079984

 Al 
  0.9873162  0.0000062  0.5090911

 Al 
  0.0084587  0.2550072  0.7338114

 Al 
  0.2477823  0.0095305  0.7668680

 Al 
  0.2548797  0.2576617  0.4967415

 Al 
  0.9870588  0.5220447  0.5064130

 Al 
  0.0069687  0.7574303  0.7671860

 Al 
  0.2545963  0.4951587  0.7411044

 Al 
  0.2351839  0.7497612  0.5198567

 Al 
  0.5210200  0.4890253  0.9833894

 Al 
  0.5046990  0.7678741  0.2624264

 Al 
  0.7469667  0.4924818  0.2297572

 Al 
  0.7540048  0.7340614  0.9939496

 Al 
  0.5110056  0.0155017  0.5054279

 Al 
  0.5249146  0.2423271  0.7580046

 Al 
  0.7460732  0.9830986  0.7508069

 Al 
  0.7722600  0.2544565  0.4978169

 Al 
  0.5039008  0.5245532  0.4870848

 Al 
  0.4770927  0.7469692  0.7327286

 Al 
  0.7421093  0.5036421  0.7342520

 Al 
  0.7492278  0.7459049  0.5095540

