32 
charge = 0 
 Al 
  0.0131454  0.0248911  0.0040060

 Al 
  0.9846790  0.2440956  0.2439731

 Al 
  0.2317286  0.0080343  0.2689174

 Al 
  0.2564774  0.2521447  0.0143570

 Al 
  0.5025667  0.9835615  0.0053797

 Al 
  0.5084625  0.2449446  0.2386478

 Al 
  0.7501089  0.9773835  0.2453072

 Al 
  0.7521001  0.2433704  0.9958628

 Al 
  0.9952997  0.4892419  0.9934001

 Al 
  0.9908383  0.7438369  0.2533637

 Al 
  0.2303327  0.5023291  0.2418482

 Al 
  0.2536471  0.7391156  0.0059651

 Al 
  0.9859487  0.9997698  0.5093485

 Al 
  0.0086592  0.2543067  0.7334612

 Al 
  0.2468962  0.0099958  0.7666700

 Al 
  0.2536991  0.2573845  0.4966153

 Al 
  0.9861641  0.5214816  0.5068982

 Al 
  0.0069526  0.7588288  0.7680152

 Al 
  0.2538129  0.4960943  0.7406861

 Al 
  0.2345948  0.7488194  0.5202799

 Al 
  0.5217266  0.4881033  0.9834959

 Al 
  0.5044268  0.7670598  0.2631565

 Al 
  0.7467749  0.4916019  0.2300307

 Al 
  0.7542213  0.7348720  0.9947490

 Al 
  0.5131120  0.0152975  0.5056371

 Al 
  0.5241931  0.2425957  0.7585379

 Al 
  0.7462291  0.9837496  0.7508230

 Al 
  0.7718875  0.2555418  0.4975274

 Al 
  0.5051507  0.5242414  0.4876108

 Al 
  0.4764851  0.7459470  0.7323895

 Al 
  0.7417851  0.5040122  0.7342471

 Al 
  0.7478949  0.7473491  0.5087929

