32 
charge = 0 
 Al 
  0.0124932  0.0250941  0.0042040

 Al 
  0.9848015  0.2438543  0.2439496

 Al 
  0.2308438  0.0079526  0.2688914

 Al 
  0.2567868  0.2516286  0.0138124

 Al 
  0.5023427  0.9838659  0.0055802

 Al 
  0.5081902  0.2455089  0.2389807

 Al 
  0.7501213  0.9775259  0.2453183

 Al 
  0.7518192  0.2433456  0.9957242

 Al 
  0.9960274  0.4888607  0.9933592

 Al 
  0.9903322  0.7439149  0.2535209

 Al 
  0.2300752  0.5020420  0.2420635

 Al 
  0.2530852  0.7396255  0.0069712

 Al 
  0.9866195  0.9998886  0.5092211

 Al 
  0.0085639  0.2546545  0.7336246

 Al 
  0.2473306  0.0097656  0.7667776

 Al 
  0.2542832  0.2575207  0.4966771

 Al 
  0.9865960  0.5217712  0.5066606

 Al 
  0.0069638  0.7581394  0.7676056

 Al 
  0.2542028  0.4956351  0.7408866

 Al 
  0.2348881  0.7492785  0.5200881

 Al 
  0.5213937  0.4885501  0.9834365

 Al 
  0.5045740  0.7674731  0.2628001

 Al 
  0.7468702  0.4920326  0.2298822

 Al 
  0.7541174  0.7344624  0.9943518

 Al 
  0.5120737  0.0153990  0.5055356

 Al 
  0.5245631  0.2424632  0.7582855

 Al 
  0.7461487  0.9834191  0.7508081

 Al 
  0.7720917  0.2550059  0.4976709

 Al 
  0.5045381  0.5244196  0.4873533

 Al 
  0.4767685  0.7464457  0.7325405

 Al 
  0.7419398  0.5038315  0.7342434

 Al 
  0.7485558  0.7466252  0.5091753

