32 
charge = 0 
 Al 
  0.0063734  0.0253700  0.0053945

 Al 
  0.9863819  0.2423989  0.2443654

 Al 
  0.2241015  0.0066358  0.2683469

 Al 
  0.2595577  0.2474791  0.0086258

 Al 
  0.5004369  0.9867222  0.0069761

 Al 
  0.5058203  0.2503799  0.2423878

 Al 
  0.7505495  0.9799230  0.2454322

 Al 
  0.7499183  0.2427070  0.9943976

 Al 
  0.0023848  0.4858324  0.9927033

 Al 
  0.9863534  0.7448864  0.2542832

 Al 
  0.2286124  0.4995149  0.2445597

 Al 
  0.2481659  0.7442862  0.0155413

 Al 
  0.9927578  0.0007636  0.5081852

 Al 
  0.0074885  0.2574390  0.7357668

 Al 
  0.2512326  0.0077756  0.7670202

 Al 
  0.2592533  0.2587446  0.4972724

 Al 
  0.9911353  0.5233144  0.5044119

 Al 
  0.0068313  0.7520655  0.7641095

 Al 
  0.2574254  0.4915128  0.7430709

 Al 
  0.2373348  0.7536780  0.5172665

 Al 
  0.5173333  0.4930313  0.9834055

 Al 
  0.5049416  0.7701661  0.2594278

 Al 
  0.7476907  0.4959693  0.2295357

 Al 
  0.7530580  0.7316222  0.9910722

 Al 
  0.5029429  0.0161923  0.5045023

 Al 
  0.5267895  0.2413272  0.7552893

 Al 
  0.7456995  0.9811581  0.7510952

 Al 
  0.7723863  0.2503601  0.4988553

 Al 
  0.4988973  0.5243379  0.4849834

 Al 
  0.4803958  0.7511002  0.7350428

 Al 
  0.7437132  0.5020754  0.7346889

 Al 
  0.7540369  0.7412319  0.5119883

