32 
charge = 0 
 Al 
  0.0030667  0.0245718  0.0055715

 Al 
  0.9874486  0.2421378  0.2449743

 Al 
  0.2213319  0.0056544  0.2678197

 Al 
  0.2609883  0.2455609  0.0057918

 Al 
  0.4995112  0.9883199  0.0074811

 Al 
  0.5046248  0.2528241  0.2443790

 Al 
  0.7509170  0.9818499  0.2455572

 Al 
  0.7492587  0.2422034  0.9937256

 Al 
  0.0055542  0.4844847  0.9922343

 Al 
  0.9845923  0.7455435  0.2542832

 Al 
  0.2283340  0.4982130  0.2461660

 Al 
  0.2456475  0.7468059  0.0197144

 Al 
  0.9959643  0.0011212  0.5078065

 Al 
  0.0068301  0.2586246  0.7372321

 Al 
  0.2531842  0.0067682  0.7667455

 Al 
  0.2616405  0.2593523  0.4976165

 Al 
  0.9939248  0.5233664  0.5031669

 Al 
  0.0066841  0.7489765  0.7624177

 Al 
  0.2590107  0.4894894  0.7444149

 Al 
  0.2385872  0.7561012  0.5152431

 Al 
  0.5145822  0.4956178  0.9836790

 Al 
  0.5046062  0.7709321  0.2576098

 Al 
  0.7481028  0.4980038  0.2299082

 Al 
  0.7524751  0.7306470  0.9895315

 Al 
  0.4983070  0.0164967  0.5038736

 Al 
  0.5273081  0.2407839  0.7533006

 Al 
  0.7456599  0.9803710  0.7514145

 Al 
  0.7716697  0.2480261  0.4993787

 Al 
  0.4959259  0.5234357  0.4837508

 Al 
  0.4828511  0.7535394  0.7369660

 Al 
  0.7448666  0.5010272  0.7351938

 Al 
  0.7565418  0.7391503  0.5130538

