32 
charge = 0 
 Al 
  0.0038847  0.0248255  0.0055591

 Al 
  0.9871727  0.2421687  0.2447998

 Al 
  0.2219667  0.0059106  0.2679669

 Al 
  0.2606381  0.2460200  0.0064947

 Al 
  0.4997339  0.9879177  0.0073697

 Al 
  0.5049168  0.2522276  0.2438778

 Al 
  0.7508205  0.9813338  0.2455200

 Al 
  0.7494035  0.2423321  0.9938864

 Al 
  0.0047844  0.4848015  0.9923543

 Al 
  0.9850082  0.7453728  0.2543080

 Al 
  0.2283748  0.4985323  0.2457539

 Al 
  0.2462663  0.7461784  0.0187070

 Al 
  0.9951785  0.0010383  0.5078845

 Al 
  0.0069959  0.2583523  0.7368534

 Al 
  0.2527127  0.0070157  0.7668358

 Al 
  0.2610688  0.2592062  0.4975286

 Al 
  0.9932120  0.5234060  0.5034776

 Al 
  0.0067224  0.7497314  0.7628249

 Al 
  0.2586233  0.4899733  0.7440733

 Al 
  0.2382753  0.7554985  0.5157690

 Al 
  0.5152963  0.4949681  0.9835936

 Al 
  0.5047176  0.7707836  0.2580590

 Al 
  0.7480026  0.4975075  0.2297844

 Al 
  0.7526187  0.7308561  0.9899003

 Al 
  0.4994394  0.0164311  0.5040345

 Al 
  0.5272189  0.2409126  0.7538142

 Al 
  0.7456549  0.9805418  0.7513291

 Al 
  0.7718962  0.2485954  0.4992575

 Al 
  0.4966561  0.5237030  0.4840515

 Al 
  0.4822175  0.7529429  0.7364598

 Al 
  0.7445696  0.5012970  0.7350540

 Al 
  0.7559514  0.7396144  0.5128174

