32 
charge = 0 
 Al 
  0.9984926  0.0224073  0.0052101

 Al 
  0.9891144  0.2424348  0.2462564

 Al 
  0.2184719  0.0040617  0.2667356

 Al 
  0.2628768  0.2431711  0.0018551

 Al 
  0.4983578  0.9906737  0.0079402

 Al 
  0.5030506  0.2560727  0.2472675

 Al 
  0.7514925  0.9852309  0.2458938

 Al 
  0.7486486  0.2414720  0.9929261

 Al 
  0.0096703  0.4829216  0.9915524

 Al 
  0.9824972  0.7465979  0.2538352

 Al 
  0.2284478  0.4964655  0.2486152

 Al 
  0.2421996  0.7503750  0.0250210

 Al 
  0.0002277  0.0015321  0.5076308

 Al 
  0.0058735  0.2598287  0.7395290

 Al 
  0.2556148  0.0053958  0.7659472

 Al 
  0.2645488  0.2600948  0.4981523

 Al 
  0.9982290  0.5224073  0.5013762

 Al 
  0.0065071  0.7448790  0.7602928

 Al 
  0.2611455  0.4870563  0.7464432

 Al 
  0.2404151  0.7594884  0.5120019

 Al 
  0.5101505  0.4993688  0.9843708

 Al 
  0.5036533  0.7712452  0.2551359

 Al 
  0.7486486  0.5006757  0.2309960

 Al 
  0.7517103  0.7298995  0.9876380

 Al 
  0.4921563  0.0166836  0.5028637

 Al 
  0.5273093  0.2401453  0.7501547

 Al 
  0.7459111  0.9797188  0.7519355

 Al 
  0.7698121  0.2449161  0.4999356

 Al 
  0.4919546  0.5214655  0.4821630

 Al 
  0.4867098  0.7567361  0.7401577

 Al 
  0.7466796  0.4993589  0.7361740

 Al 
  0.7594253  0.7372222  0.5139956

