32 
charge = 0 
 Al 
  0.0055430  0.0252277  0.0054700

 Al 
  0.9866380  0.2422986  0.2444941

 Al 
  0.2233540  0.0064031  0.2682305

 Al 
  0.2599215  0.2469816  0.0079154

 Al 
  0.5001980  0.9871170  0.0071172

 Al 
  0.5055158  0.2510024  0.2428791

 Al 
  0.7506361  0.9803685  0.2454569

 Al 
  0.7497327  0.2425858  0.9942231

 Al 
  0.0031954  0.4854772  0.9925895

 Al 
  0.9858893  0.7450436  0.2543080

 Al 
  0.2285147  0.4991844  0.2449483

 Al 
  0.2475286  0.7449161  0.0166155

 Al 
  0.9935709  0.0008589  0.5080751

 Al 
  0.0073264  0.2577583  0.7361183

 Al 
  0.2517338  0.0075194  0.7669744

 Al 
  0.2598720  0.2589018  0.4973566

 Al 
  0.9918135  0.5233788  0.5041013

 Al 
  0.0067967  0.7512796  0.7636738

 Al 
  0.2578301  0.4909881  0.7433988

 Al 
  0.2376491  0.7542844  0.5167851

 Al 
  0.5166762  0.4936711  0.9834563

 Al 
  0.5048871  0.7704000  0.2589699

 Al 
  0.7477959  0.4964878  0.2295975

 Al 
  0.7529107  0.7313450  0.9906713

 Al 
  0.5017635  0.0162777  0.5043488

 Al 
  0.5269591  0.2411861  0.7548116

 Al 
  0.7456760  0.9809353  0.7511683

 Al 
  0.7722563  0.2497649  0.4989951

 Al 
  0.4981449  0.5241572  0.4846691

 Al 
  0.4809849  0.7517202  0.7354945

 Al 
  0.7439904  0.5018217  0.7348003

 Al 
  0.7546953  0.7406576  0.5122828

