32 
charge = 0 
 Al 
  0.0014677  0.0239642  0.0055319

 Al 
  0.9880055  0.2421477  0.2453604

 Al 
  0.2201958  0.0051272  0.2674954

 Al 
  0.2616628  0.2446921  0.0044181

 Al 
  0.4990892  0.9891181  0.0076729

 Al 
  0.5040642  0.2539751  0.2453715

 Al 
  0.7511138  0.9829315  0.2456475

 Al 
  0.7490087  0.2419459  0.9934261

 Al 
  0.0070281  0.4838968  0.9919954

 Al 
  0.9838164  0.7458901  0.2541879

 Al 
  0.2283068  0.4975954  0.2469927

 Al 
  0.2444433  0.7480385  0.0216326

 Al 
  0.9974803  0.0012735  0.5076902

 Al 
  0.0065009  0.2591097  0.7379994

 Al 
  0.2540753  0.0062893  0.7665252

 Al 
  0.2627172  0.2596270  0.4977934

 Al 
  0.9953641  0.5231833  0.5025531

 Al 
  0.0066135  0.7475224  0.7616455

 Al 
  0.2597607  0.4885835  0.7450993

 Al 
  0.2392047  0.7572806  0.5141689

 Al 
  0.5131219  0.4969049  0.9838770

 Al 
  0.5043377  0.7711438  0.2567373

 Al 
  0.7482959  0.4989592  0.2302101

 Al 
  0.7522004  0.7303030  0.9888372

 Al 
  0.4961227  0.0166007  0.5035444

 Al 
  0.5274071  0.2405425  0.7522548

 Al 
  0.7457007  0.9800827  0.7515890

 Al 
  0.7711376  0.2469259  0.4995990

 Al 
  0.4945164  0.5228380  0.4831766

 Al 
  0.4841382  0.7546854  0.7380117

 Al 
  0.7454705  0.5004789  0.7354958

 Al 
  0.7576333  0.7383434  0.5134585

