32 
charge = 0 
 Al 
  0.9978021  0.0219568  0.0050814

 Al 
  0.9893854  0.2425585  0.2465002

 Al 
  0.2181538  0.0037981  0.2665227

 Al 
  0.2631479  0.2428358  0.0012574

 Al 
  0.4981993  0.9910499  0.0079848

 Al 
  0.5028216  0.2565517  0.2477155

 Al 
  0.7515804  0.9858250  0.2459705

 Al 
  0.7485855  0.2413668  0.9928234

 Al 
  0.0102631  0.4827199  0.9914534

 Al 
  0.9822138  0.7467761  0.2537176

 Al 
  0.2285196  0.4962081  0.2490062

 Al 
  0.2416749  0.7509282  0.0257698

 Al 
  0.0008477  0.0015878  0.5076531

 Al 
  0.0057262  0.2599537  0.7399040

 Al 
  0.2559428  0.0051866  0.7657777

 Al 
  0.2649337  0.2601926  0.4982451

 Al 
  0.9989357  0.5221326  0.5010940

 Al 
  0.0064910  0.7442787  0.7599958

 Al 
  0.2614673  0.4867370  0.7467700

 Al 
  0.2407133  0.7600032  0.5114648

 Al 
  0.5094080  0.4999554  0.9845119

 Al 
  0.5034590  0.7712093  0.2547696

 Al 
  0.7487290  0.5010606  0.2312249

 Al 
  0.7516026  0.7298562  0.9873793

 Al 
  0.4912541  0.0166749  0.5026867

 Al 
  0.5272289  0.2400648  0.7496362

 Al 
  0.7459915  0.9796706  0.7520185

 Al 
  0.7694372  0.2444545  0.4999975

 Al 
  0.4913754  0.5210980  0.4819415

 Al 
  0.4873422  0.7571927  0.7406960

 Al 
  0.7469791  0.4990755  0.7363559

 Al 
  0.7597891  0.7370402  0.5140736

