32 
charge = 0 
 Al 
  0.9946438  0.0193877  0.0041916

 Al 
  0.9907047  0.2434496  0.2478157

 Al 
  0.2171922  0.0025209  0.2653124

 Al 
  0.2643124  0.2414150  0.9985285

 Al 
  0.4975546  0.9928840  0.0080937

 Al 
  0.5018118  0.2587013  0.2497909

 Al 
  0.7519603  0.9888867  0.2464593

 Al 
  0.7483813  0.2409571  0.9924385

 Al 
  0.0128632  0.4819415  0.9910438

 Al 
  0.9810418  0.7476734  0.2529900

 Al 
  0.2290642  0.4950671  0.2508502

 Al 
  0.2392332  0.7535295  0.0289577

 Al 
  0.0035741  0.0018341  0.5079909

 Al 
  0.0050493  0.2602594  0.7417145

 Al 
  0.2572496  0.0042028  0.7647926

 Al 
  0.2664126  0.2605713  0.4987414

 Al 
  0.0023910  0.5203022  0.4997649

 Al 
  0.0064997  0.7416007  0.7587384

 Al 
  0.2629350  0.4854958  0.7483367

 Al 
  0.2422108  0.7623410  0.5088226

 Al 
  0.5057089  0.5027202  0.9853237

 Al 
  0.5023959  0.7707118  0.2531508

 Al 
  0.7490854  0.5027301  0.2325442

 Al 
  0.7511546  0.7299428  0.9863064

 Al 
  0.4872494  0.0164299  0.5017413

 Al 
  0.5265247  0.2397876  0.7471152

 Al 
  0.7465682  0.9796730  0.7524021

 Al 
  0.7673704  0.2423642  0.5001745

 Al 
  0.4888421  0.5191971  0.4810356

 Al 
  0.4904287  0.7591431  0.7433543

 Al 
  0.7484456  0.4976214  0.7373323

 Al 
  0.7611405  0.7366603  0.5141441

