32 
charge = 0 
 Al 
  0.9964816  0.0209915  0.0047745

 Al 
  0.9899201  0.2428617  0.2470088

 Al 
  0.2176464  0.0032771  0.2660697

 Al 
  0.2636516  0.2422194  0.0001176

 Al 
  0.4979135  0.9917925  0.0080491

 Al 
  0.5023922  0.2574588  0.2485793

 Al 
  0.7517462  0.9870303  0.2461450

 Al 
  0.7484827  0.2411799  0.9926439

 Al 
  0.0113744  0.4823635  0.9912702

 Al 
  0.9817002  0.7471326  0.2534528

 Al 
  0.2287003  0.4957230  0.2497673

 Al 
  0.2406651  0.7519999  0.0271521

 Al 
  0.0020110  0.0016917  0.5077434

 Al 
  0.0054428  0.2601393  0.7406403

 Al 
  0.2565331  0.0047819  0.7654114

 Al 
  0.2656131  0.2603671  0.4984357

 Al 
  0.0003304  0.5214903  0.5005482

 Al 
  0.0064762  0.7431451  0.7594500

 Al 
  0.2620798  0.4861715  0.7474098

 Al 
  0.2413086  0.7609846  0.5103992

 Al 
  0.5079266  0.5010940  0.9848151

 Al 
  0.5030506  0.7710707  0.2540802

 Al 
  0.7488800  0.5017784  0.2317187

 Al 
  0.7514059  0.7298314  0.9869066

 Al 
  0.4895562  0.0166192  0.5023229

 Al 
  0.5270061  0.2399300  0.7486139

 Al 
  0.7461858  0.9796235  0.7521793

 Al 
  0.7686476  0.2435783  0.5000941

 Al 
  0.4902901  0.5203480  0.4815380

 Al 
  0.4885921  0.7580380  0.7417653

 Al 
  0.7475707  0.4985013  0.7367333

 Al 
  0.7604203  0.7367865  0.5141639

