32 
charge = 0 
 Al 
  0.9935016  0.0182132  0.0037275

 Al 
  0.9912220  0.2439236  0.2483813

 Al 
  0.2170796  0.0020346  0.2647493

 Al 
  0.2646936  0.2409497  0.9975410

 Al 
  0.4973578  0.9936055  0.0080949

 Al 
  0.5014616  0.2594612  0.2505458

 Al 
  0.7520779  0.9901614  0.2467093

 Al 
  0.7483417  0.2408519  0.9923407

 Al 
  0.0137555  0.4817286  0.9909274

 Al 
  0.9806680  0.7480422  0.2526410

 Al 
  0.2293674  0.4946748  0.2515346

 Al 
  0.2383224  0.7545109  0.0299985

 Al 
  0.0045072  0.0019244  0.5082335

 Al 
  0.0048030  0.2602371  0.7424125

 Al 
  0.2576221  0.0038290  0.7643334

 Al 
  0.2667987  0.2606703  0.4989654

 Al 
  0.0037523  0.5193604  0.4992637

 Al 
  0.0065517  0.7406589  0.7583263

 Al 
  0.2634684  0.4851505  0.7489369

 Al 
  0.2428296  0.7631751  0.5077756

 Al 
  0.5042238  0.5037597  0.9857037

 Al 
  0.5019331  0.7703802  0.2525927

 Al 
  0.7492092  0.5032907  0.2331518

 Al 
  0.7510148  0.7301111  0.9859710

 Al 
  0.4858534  0.0162269  0.5013205

 Al 
  0.5261089  0.2397344  0.7461351

 Al 
  0.7468851  0.9797857  0.7525382

 Al 
  0.7664596  0.2416106  0.5001881

 Al 
  0.4879870  0.5184162  0.4807683

 Al 
  0.4916366  0.7597792  0.7444062

 Al 
  0.7490273  0.4970150  0.7377568

 Al 
  0.7614809  0.7367284  0.5140302

