32 
charge = 0 
 Al 
  0.9952391  0.0199433  0.0044008

 Al 
  0.9904448  0.2432367  0.2475410

 Al 
  0.2173048  0.0027697  0.2655760

 Al 
  0.2641045  0.2416675  0.9990434

 Al 
  0.4976647  0.9925214  0.0080850

 Al 
  0.5019974  0.2583016  0.2493973

 Al 
  0.7518935  0.9882605  0.2463467

 Al 
  0.7484085  0.2410227  0.9924991

 Al 
  0.0123892  0.4820677  0.9911131

 Al 
  0.9812472  0.7474927  0.2531521

 Al 
  0.2289305  0.4952762  0.2504975

 Al 
  0.2397010  0.7530296  0.0283897

 Al 
  0.0030753  0.0017870  0.5078932

 Al 
  0.0051767  0.2602408  0.7413606

 Al 
  0.2570331  0.0043933  0.7650092

 Al 
  0.2661749  0.2605106  0.4986350

 Al 
  0.0017078  0.5207279  0.5000210

 Al 
  0.0064848  0.7420969  0.7589624

 Al 
  0.2626578  0.4856987  0.7480323

 Al 
  0.2419076  0.7619041  0.5093461

 Al 
  0.5064489  0.5021880  0.9851468

 Al 
  0.5026187  0.7708505  0.2534478

 Al 
  0.7490199  0.5024293  0.2322571

 Al 
  0.7512314  0.7298871  0.9864920

 Al 
  0.4879882  0.0165078  0.5019405

 Al 
  0.5267041  0.2398260  0.7476103

 Al 
  0.7464284  0.9796396  0.7523303

 Al 
  0.7678085  0.2427565  0.5001559

 Al 
  0.4893025  0.5195832  0.4811891

 Al 
  0.4898210  0.7587954  0.7428271

 Al 
  0.7481548  0.4979184  0.7371281

 Al 
  0.7609289  0.7366702  0.5141713

