32 
charge = 0 
 Al 
  0.9929508  0.0175932  0.0034726

 Al 
  0.9914794  0.2441859  0.2486733

 Al 
  0.2170796  0.0017982  0.2644485

 Al 
  0.2648668  0.2407368  0.9970645

 Al 
  0.4972712  0.9939669  0.0080862

 Al 
  0.5012945  0.2598238  0.2509084

 Al 
  0.7521286  0.9908136  0.2468479

 Al 
  0.7483281  0.2408136  0.9923024

 Al 
  0.0141750  0.4816420  0.9908804

 Al 
  0.9804960  0.7482290  0.2524566

 Al 
  0.2295381  0.4944916  0.2518650

 Al 
  0.2378756  0.7549923  0.0304737

 Al 
  0.0049441  0.0019690  0.5083771

 Al 
  0.0046854  0.2601950  0.7427578

 Al 
  0.2577781  0.0036434  0.7640872

 Al 
  0.2669484  0.2607074  0.4990842

 Al 
  0.0044329  0.5188431  0.4990199

 Al 
  0.0065888  0.7402109  0.7581357

 Al 
  0.2637246  0.4850069  0.7492315

 Al 
  0.2431476  0.7635711  0.5072521

 Al 
  0.5034738  0.5042708  0.9859079

 Al 
  0.5016942  0.7701871  0.2523303

 Al 
  0.7492686  0.5035506  0.2334748

 Al 
  0.7509542  0.7302213  0.9858212

 Al 
  0.4851913  0.0160995  0.5010977

 Al 
  0.5258725  0.2397208  0.7456487

 Al 
  0.7470645  0.9798673  0.7526014

 Al 
  0.7659868  0.2412467  0.5001819

 Al 
  0.4875897  0.5180226  0.4806557

 Al 
  0.4922380  0.7600688  0.7449334

 Al 
  0.7493181  0.4967031  0.7379771

 Al 
  0.7616120  0.7368051  0.5139436

