32 
charge = 0 
 Al 
  0.9878929  0.0099154  0.0000718

 Al 
  0.9942292  0.2477031  0.2519628

 Al 
  0.2190473  0.9997884  0.2604723

 Al 
  0.2660413  0.2391726  0.9927838

 Al 
  0.4968158  0.9978652  0.0077521

 Al 
  0.4998267  0.2630006  0.2540629

 Al 
  0.7522548  0.9982092  0.2488751

 Al 
  0.7483120  0.2410524  0.9923098

 Al 
  0.0176229  0.4814848  0.9909076

 Al 
  0.9792015  0.7503044  0.2502364

 Al 
  0.2321358  0.4930721  0.2547671

 Al 
  0.2335256  0.7597223  0.0336728

 Al 
  0.0084996  0.0024887  0.5107408

 Al 
  0.0036211  0.2585392  0.7461660

 Al 
  0.2582682  0.0016348  0.7609685

 Al 
  0.2667838  0.2606307  0.5007017

 Al 
  0.0114623  0.5118150  0.4967613

 Al 
  0.0075033  0.7362098  0.7565987

 Al 
  0.2660413  0.4846307  0.7520346

 Al 
  0.2468863  0.7668209  0.5017264

 Al 
  0.4953888  0.5092904  0.9887221

 Al 
  0.4990013  0.7672256  0.2501893

 Al 
  0.7497265  0.5055072  0.2375736

 Al 
  0.7506126  0.7323511  0.9849154

 Al 
  0.4796223  0.0136961  0.4981783

 Al 
  0.5223504  0.2400983  0.7407925

 Al 
  0.7497265  0.9817237  0.7530469

 Al 
  0.7604166  0.2378979  0.4996918

 Al 
  0.4846431  0.5139399  0.4803822

 Al 
  0.4984394  0.7620786  0.7503836

 Al 
  0.7524454  0.4931117  0.7405747

 Al 
  0.7616517  0.7390166  0.5119747

