32 
charge = 0 
 Al 
  0.9874140  0.0089760  0.9996423

 Al 
  0.9945349  0.2481449  0.2523340

 Al 
  0.2194471  0.9996423  0.2599599

 Al 
  0.2661007  0.2390661  0.9923927

 Al 
  0.4968096  0.9983008  0.0076927

 Al 
  0.4996894  0.2632840  0.2543327

 Al 
  0.7522227  0.9990619  0.2491547

 Al 
  0.7483132  0.2411514  0.9923506

 Al 
  0.0179051  0.4815442  0.9909707

 Al 
  0.9791013  0.7505396  0.2499839

 Al 
  0.2325095  0.4929731  0.2550097

 Al 
  0.2330899  0.7601988  0.0338300

 Al 
  0.0087867  0.0025531  0.5110712

 Al 
  0.0035233  0.2582360  0.7465113

 Al 
  0.2582125  0.0013997  0.7605836

 Al 
  0.2665858  0.2605688  0.5009146

 Al 
  0.0121999  0.5109104  0.4965583

 Al 
  0.0076617  0.7358373  0.7564638

 Al 
  0.2662504  0.4847037  0.7522982

 Al 
  0.2473343  0.7670647  0.5011262

 Al 
  0.4944941  0.5098027  0.9891082

 Al 
  0.4986968  0.7668185  0.2500136

 Al 
  0.7497587  0.5056420  0.2380897

 Al 
  0.7506064  0.7326729  0.9848844

 Al 
  0.4791582  0.0133224  0.4977971

 Al 
  0.5218677  0.2401923  0.7403000

 Al 
  0.7500916  0.9820306  0.7530667

 Al 
  0.7597594  0.2375811  0.4995966

 Al 
  0.4844537  0.5135129  0.4804539

 Al 
  0.4990929  0.7621987  0.7509628

 Al 
  0.7527932  0.4926922  0.7408816

 Al 
  0.7615353  0.7393780  0.5116603

