32 
charge = 0 
 Al 
  0.9893532  0.0125353  0.0012623

 Al 
  0.9933531  0.2464729  0.2508972

 Al 
  0.2180746  0.0003020  0.2618756

 Al 
  0.2657950  0.2395451  0.9939929

 Al 
  0.4968776  0.9966177  0.0079018

 Al 
  0.5002438  0.2621170  0.2532028

 Al 
  0.7522982  0.9957861  0.2481251

 Al 
  0.7483058  0.2408470  0.9922331

 Al 
  0.0167108  0.4813932  0.9907925

 Al 
  0.9795295  0.7496312  0.2509653

 Al 
  0.2311569  0.4934199  0.2539800

 Al 
  0.2348287  0.7582991  0.0330120

 Al 
  0.0075689  0.0023118  0.5098498

 Al 
  0.0039243  0.2592879  0.7451376

 Al 
  0.2583214  0.0022907  0.7620427

 Al 
  0.2671687  0.2607507  0.5001238

 Al 
  0.0092879  0.5143037  0.4973999

 Al 
  0.0071110  0.7373484  0.7570133

 Al 
  0.2653891  0.4845379  0.7512215

 Al 
  0.2456314  0.7659893  0.5034652

 Al 
  0.4979679  0.5077731  0.9876949

 Al 
  0.4998738  0.7683221  0.2507549

 Al 
  0.7496139  0.5050356  0.2361529

 Al 
  0.7506646  0.7315096  0.9850762

 Al 
  0.4811160  0.0146614  0.4992141

 Al 
  0.5236486  0.2398805  0.7422615

 Al 
  0.7487439  0.9809453  0.7529565

 Al 
  0.7622692  0.2388669  0.4999257

 Al 
  0.4853324  0.5151985  0.4802856

 Al 
  0.4965200  0.7616343  0.7486907

 Al 
  0.7514455  0.4942998  0.7397097

 Al 
  0.7618719  0.7380835  0.5127853

