32 
charge = 0 
 Al 
  0.9888632  0.0116950  0.0008824

 Al 
  0.9936377  0.2468665  0.2512438

 Al 
  0.2183617  0.0001188  0.2614301

 Al 
  0.2658878  0.2394114  0.9935845

 Al 
  0.4968504  0.9970249  0.0078573

 Al 
  0.5001040  0.2624165  0.2534974

 Al 
  0.7522932  0.9965720  0.2483602

 Al 
  0.7483083  0.2409002  0.9922516

 Al 
  0.0170251  0.4814106  0.9908185

 Al 
  0.9794156  0.7498503  0.2507277

 Al 
  0.2314613  0.4932961  0.2542523

 Al 
  0.2343956  0.7587731  0.0332632

 Al 
  0.0078907  0.0023687  0.5101294

 Al 
  0.0038216  0.2590651  0.7454792

 Al 
  0.2583226  0.0020791  0.7616987

 Al 
  0.2670746  0.2607210  0.5003069

 Al 
  0.0100057  0.5135129  0.4971821

 Al 
  0.0072298  0.7369648  0.7568722

 Al 
  0.2656106  0.4845478  0.7514950

 Al 
  0.2460348  0.7662814  0.5028947

 Al 
  0.4971264  0.5082768  0.9880167

 Al 
  0.4995904  0.7679781  0.2505594

 Al 
  0.7496535  0.5052027  0.2366059

 Al 
  0.7506423  0.7317707  0.9850106

 Al 
  0.4806024  0.0143656  0.4988862

 Al 
  0.5232402  0.2399423  0.7417739

 Al 
  0.7490520  0.9811804  0.7529912

 Al 
  0.7616715  0.2385414  0.4998564

 Al 
  0.4850837  0.5147827  0.4802980

 Al 
  0.4971524  0.7617964  0.7492476

 Al 
  0.7517722  0.4939161  0.7399881

 Al 
  0.7618200  0.7383694  0.5125377

