32 
charge = 0 
 Al 
  0.9842000  0.0015494  0.9962477

 Al 
  0.9968591  0.2515779  0.2550876

 Al 
  0.2232501  0.9991461  0.2558042

 Al 
  0.2661886  0.2385835  0.9898928

 Al 
  0.4969605  0.0015779  0.0071185

 Al 
  0.4987228  0.2650710  0.2559019

 Al 
  0.7517202  0.0055653  0.2515482

 Al 
  0.7482823  0.2423259  0.9928543

 Al 
  0.0195411  0.4823833  0.9918011

 Al 
  0.9785011  0.7523402  0.2482117

 Al 
  0.2358410  0.4925585  0.2563017

 Al 
  0.2301309  0.7634709  0.0338634

 Al 
  0.0104500  0.0030407  0.5137543

 Al 
  0.0028922  0.2553574  0.7489654

 Al 
  0.2573140  0.9994777  0.7575875

 Al 
  0.2641862  0.2597569  0.5026509

 Al 
  0.0173915  0.5036372  0.4953740

 Al 
  0.0091481  0.7333362  0.7555195

 Al 
  0.2675288  0.4858732  0.7539689

 Al 
  0.2508292  0.7681612  0.4967093

 Al 
  0.4878187  0.5134226  0.9925115

 Al 
  0.4964371  0.7634040  0.2489283

 Al 
  0.7498886  0.5062435  0.2422615

 Al 
  0.7507042  0.7354537  0.9850304

 Al 
  0.4764789  0.0099710  0.4946154

 Al 
  0.5177924  0.2411650  0.7369202

 Al 
  0.7531323  0.9848993  0.7529961

 Al 
  0.7546854  0.2355032  0.4987006

 Al 
  0.4837830  0.5105032  0.4816160

 Al 
  0.5037535  0.7626244  0.7551210

 Al 
  0.7554279  0.4894634  0.7432565

 Al 
  0.7601604  0.7425548  0.5088795

