32 
charge = 0 
 Al 
  0.9829761  0.9981041  0.9946859

 Al 
  0.9979023  0.2531100  0.2562744

 Al 
  0.2253168  0.9993020  0.2538364

 Al 
  0.2660301  0.2385340  0.9890030

 Al 
  0.4971227  0.0030308  0.0068004

 Al 
  0.4983095  0.2656824  0.2563437

 Al 
  0.7513663  0.0084625  0.2527437

 Al 
  0.7482340  0.2430944  0.9931897

 Al 
  0.0200163  0.4829625  0.9923655

 Al 
  0.9783043  0.7531595  0.2475373

 Al 
  0.2376219  0.4925598  0.2565640

 Al 
  0.2290159  0.7647295  0.0332323

 Al 
  0.0109475  0.0032412  0.5149745

 Al 
  0.0026719  0.2537783  0.7499975

 Al 
  0.2567026  0.9985137  0.7562435

 Al 
  0.2626714  0.2591877  0.5034738

 Al 
  0.0194594  0.5002277  0.4950572

 Al 
  0.0099636  0.7323697  0.7550975

 Al 
  0.2679335  0.4867210  0.7545245

 Al 
  0.2524083  0.7682144  0.4948022

 Al 
  0.4849079  0.5149064  0.9943146

 Al 
  0.4954631  0.7617259  0.2485384

 Al 
  0.7498886  0.5062918  0.2442565

 Al 
  0.7508205  0.7368459  0.9853064

 Al 
  0.4757351  0.0082323  0.4930449

 Al 
  0.5157579  0.2417257  0.7356133

 Al 
  0.7545988  0.9864611  0.7528204

 Al 
  0.7523798  0.2347656  0.4982253

 Al 
  0.4838981  0.5092780  0.4824922

 Al 
  0.5056581  0.7625872  0.7568425

 Al 
  0.7565999  0.4880167  0.7443394

 Al 
  0.7593188  0.7441810  0.5074563

