32 
charge = 0 
 Al 
  0.9803834  0.9886330  0.9905314

 Al 
  0.0006980  0.2569724  0.2591951

 Al 
  0.2319563  0.0012722  0.2483120

 Al 
  0.2648780  0.2389548  0.9872816

 Al 
  0.4978578  0.0068969  0.0057621

 Al 
  0.4971487  0.2666762  0.2565776

 Al 
  0.7500124  0.0160512  0.2562027

 Al 
  0.7479654  0.2460831  0.9945807

 Al 
  0.0204495  0.4851827  0.9945980

 Al 
  0.9780048  0.7554638  0.2463579

 Al 
  0.2434954  0.4932639  0.2561061

 Al 
  0.2269306  0.7672677  0.0291223

 Al 
  0.0115378  0.0035456  0.5179100

 Al 
  0.0023279  0.2486201  0.7527486

 Al 
  0.2545765  0.9954223  0.7527808

 Al 
  0.2573288  0.2567422  0.5057584

 Al 
  0.0238973  0.4908309  0.4950968

 Al 
  0.0126033  0.7301619  0.7536805

 Al 
  0.2684285  0.4901416  0.7553116

 Al 
  0.2564328  0.7666415  0.4899064

 Al 
  0.4773934  0.5184372  0.0002624

 Al 
  0.4930597  0.7567967  0.2475756

 Al 
  0.7497215  0.5056606  0.2500408

 Al 
  0.7513019  0.7409225  0.9868385

 Al 
  0.4753775  0.0029417  0.4883756

 Al 
  0.5095478  0.2436290  0.7329006

 Al 
  0.7586642  0.9915821  0.7516620

 Al 
  0.7461363  0.2336184  0.4968417

 Al 
  0.4856765  0.5063413  0.4862866

 Al 
  0.5100849  0.7617940  0.7608930

 Al 
  0.7597211  0.4842297  0.7473083

 Al 
  0.7564007  0.7492240  0.5031929

