32 
charge = 0 
 Al 
  0.9822459  0.9958257  0.9936649

 Al 
  0.9985830  0.2540926  0.2570294

 Al 
  0.2267759  0.9995483  0.2525283

 Al 
  0.2658581  0.2385563  0.9884931

 Al 
  0.4972563  0.0039751  0.0065727

 Al 
  0.4980385  0.2660178  0.2565393

 Al 
  0.7510928  0.0103386  0.2535568

 Al 
  0.7481882  0.2436835  0.9934508

 Al 
  0.0202428  0.4834068  0.9928011

 Al 
  0.9781966  0.7537015  0.2471524

 Al 
  0.2388892  0.4926266  0.2566222

 Al 
  0.2283711  0.7654720  0.0325900

 Al 
  0.0111962  0.0033563  0.5157517

 Al 
  0.0025506  0.2526558  0.7506596

 Al 
  0.2562485  0.9978392  0.7553784

 Al 
  0.2615489  0.2587347  0.5040208

 Al 
  0.0207069  0.4979716  0.4949309

 Al 
  0.0105428  0.7317831  0.7548055

 Al 
  0.2681390  0.4873843  0.7548203

 Al 
  0.2534280  0.7680882  0.4935808

 Al 
  0.4830367  0.5158297  0.9955955

 Al 
  0.4948443  0.7605873  0.2483008

 Al 
  0.7498701  0.5062497  0.2455980

 Al 
  0.7509170  0.7377939  0.9855601

 Al 
  0.4754072  0.0070294  0.4919744

 Al 
  0.5143607  0.2421316  0.7348374

 Al 
  0.7555777  0.9875724  0.7526459

 Al 
  0.7508688  0.2343572  0.4978986

 Al 
  0.4841159  0.5085169  0.4831964

 Al 
  0.5068338  0.7624932  0.7579130

 Al 
  0.7573623  0.4870774  0.7450535

 Al 
  0.7587025  0.7453059  0.5064786

