32 
charge = 0 
 Al 
  0.9810430  0.9915202  0.9917677

 Al 
  0.9998552  0.2558660  0.2583746

 Al 
  0.2297547  0.0003775  0.2500260

 Al 
  0.2653668  0.2387270  0.9876912

 Al 
  0.4975781  0.0057299  0.0061074

 Al 
  0.4975174  0.2664955  0.2566828

 Al 
  0.7504901  0.0137976  0.2551322

 Al 
  0.7480706  0.2450040  0.9940560

 Al 
  0.0204705  0.4843919  0.9937850

 Al 
  0.9780494  0.7547411  0.2465856

 Al 
  0.2415165  0.4929174  0.2564564

 Al 
  0.2273823  0.7666601  0.0308190

 Al 
  0.0114895  0.0035122  0.5171143

 Al 
  0.0023835  0.2503440  0.7518997

 Al 
  0.2552918  0.9964593  0.7537968

 Al 
  0.2591567  0.2576692  0.5050579

 Al 
  0.0227736  0.4936996  0.4949074

 Al 
  0.0117296  0.7307720  0.7541879

 Al 
  0.2683840  0.4888941  0.7552052

 Al 
  0.2552782  0.7674459  0.4913494

 Al 
  0.4796112  0.5174496  0.9982538

 Al 
  0.4937404  0.7583610  0.2478714

 Al 
  0.7497970  0.5059910  0.2482080

 Al 
  0.7511348  0.7396404  0.9862235

 Al 
  0.4751794  0.0046409  0.4898668

 Al 
  0.5115700  0.2429818  0.7335726

 Al 
  0.7574303  0.9898644  0.7521521

 Al 
  0.7480348  0.2337941  0.4972650

 Al 
  0.4848671  0.5071766  0.4848559

 Al 
  0.5088696  0.7621566  0.7597767

 Al 
  0.7587817  0.4853485  0.7463999

 Al 
  0.7573994  0.7475682  0.5045518

