32 
charge = 0 
 Al 
  0.9819118  0.9947107  0.9931687

 Al 
  0.9989147  0.2545641  0.2573882

 Al 
  0.2275184  0.9997141  0.2518836

 Al 
  0.2657542  0.2385835  0.9882654

 Al 
  0.4973306  0.0044317  0.0064576

 Al 
  0.4979060  0.2661626  0.2566073

 Al 
  0.7509480  0.0112457  0.2539602

 Al 
  0.7481622  0.2439978  0.9935919

 Al 
  0.0203282  0.4836419  0.9930338

 Al 
  0.9781508  0.7539676  0.2469841

 Al 
  0.2395389  0.4926798  0.2566160

 Al 
  0.2280852  0.7658074  0.0322051

 Al 
  0.0112952  0.0034045  0.5161193

 Al 
  0.0024999  0.2520816  0.7509814

 Al 
  0.2560133  0.9974976  0.7549614

 Al 
  0.2609648  0.2584884  0.5042882

 Al 
  0.0212811  0.4968653  0.4948963

 Al 
  0.0108373  0.7315096  0.7546557

 Al 
  0.2682206  0.4877419  0.7549428

 Al 
  0.2539181  0.7679768  0.4929942

 Al 
  0.4821358  0.5162653  0.9962527

 Al 
  0.4945498  0.7600205  0.2481894

 Al 
  0.7498564  0.5062064  0.2462638

 Al 
  0.7509690  0.7382654  0.9857074

 Al 
  0.4752970  0.0064254  0.4914398

 Al 
  0.5136577  0.2423407  0.7344834

 Al 
  0.7560579  0.9881404  0.7525395

 Al 
  0.7501324  0.2341840  0.4977353

 Al 
  0.4842656  0.5081580  0.4835813

 Al 
  0.5073845  0.7624264  0.7584167

 Al 
  0.7577323  0.4866232  0.7454025

 Al 
  0.7583832  0.7458727  0.5059898

