32 
charge = 0 
 Al 
  0.9796706  0.9838956  0.9886157

 Al 
  0.0020803  0.2585553  0.2602817

 Al 
  0.2361653  0.0036644  0.2453307

 Al 
  0.2636008  0.2396416  0.9868893

 Al 
  0.4985174  0.0088275  0.0050926

 Al 
  0.4964408  0.2666118  0.2558735

 Al 
  0.7490458  0.0196154  0.2579278

 Al 
  0.7477291  0.2484011  0.9958245

 Al 
  0.0199569  0.4868311  0.9963925

 Al 
  0.9781199  0.7567620  0.2464210

 Al 
  0.2473454  0.4942404  0.2549540

 Al 
  0.2267833  0.7677726  0.0249493

 Al 
  0.0112482  0.0033526  0.5188134

 Al 
  0.0023972  0.2452997  0.7543018

 Al 
  0.2532498  0.9933667  0.7511930

 Al 
  0.2537795  0.2545716  0.5069279

 Al 
  0.0250359  0.4860985  0.4959952

 Al 
  0.0142270  0.7292708  0.7524751

 Al 
  0.2681984  0.4928580  0.7550950

 Al 
  0.2580466  0.7642716  0.4876194

 Al 
  0.4739072  0.5198196  0.0041978

 Al 
  0.4921093  0.7540109  0.2469964

 Al 
  0.7495570  0.5047040  0.2533550

 Al 
  0.7515767  0.7431340  0.9883434

 Al 
  0.4766521  0.9998899  0.4857086

 Al 
  0.5057398  0.2449025  0.7322521

 Al 
  0.7606096  0.9949198  0.7503849

 Al 
  0.7429719  0.2339364  0.4962106

 Al 
  0.4878459  0.5050567  0.4895723

 Al 
  0.5117408  0.7608274  0.7623979

 Al 
  0.7612581  0.4825095  0.7488268

 Al 
  0.7543933  0.7523786  0.5007809

