32 
charge = 0 
 Al 
  0.9799292  0.9860910  0.9894807

 Al 
  0.0014380  0.2578684  0.2598337

 Al 
  0.2340936  0.0023736  0.2467514

 Al 
  0.2642901  0.2392604  0.9870192

 Al 
  0.4981696  0.0079254  0.0054242

 Al 
  0.4967922  0.2667120  0.2563029

 Al 
  0.7495285  0.0179855  0.2571407

 Al 
  0.7478504  0.2472155  0.9951673

 Al 
  0.0202762  0.4859982  0.9954668

 Al 
  0.9780258  0.7561358  0.2463046

 Al 
  0.2454421  0.4937070  0.2555950

 Al 
  0.2267326  0.7676328  0.0271583

 Al 
  0.0114536  0.0034961  0.5184805

 Al 
  0.0023328  0.2469370  0.7535431

 Al 
  0.2538921  0.9943926  0.7519182

 Al 
  0.2555294  0.2557126  0.5063821

 Al 
  0.0246473  0.4882976  0.4954606

 Al 
  0.0134387  0.7296668  0.7531162

 Al 
  0.2683617  0.4914645  0.7552708

 Al 
  0.2573573  0.7655797  0.4886689

 Al 
  0.4754963  0.5192243  0.0022474

 Al 
  0.4925165  0.7553463  0.2472873

 Al 
  0.7496386  0.5052287  0.2517524

 Al 
  0.7514541  0.7420883  0.9875464

 Al 
  0.4758725  0.0013576  0.4869883

 Al 
  0.5076073  0.2442701  0.7324637

 Al 
  0.7597285  0.9932677  0.7510730

 Al 
  0.7444545  0.2336642  0.4964853

 Al 
  0.4866739  0.5056433  0.4878583

 Al 
  0.5110341  0.7613497  0.7617618

 Al 
  0.7605453  0.4832842  0.7481152

 Al 
  0.7553995  0.7508242  0.5019368

