32 
charge = 0 
 Al 
  0.9796260  0.9832372  0.9883682

 Al 
  0.0022746  0.2587384  0.2603893

 Al 
  0.2368447  0.0041359  0.2448839

 Al 
  0.2633471  0.2397864  0.9868719

 Al 
  0.4986436  0.0091035  0.0049824

 Al 
  0.4963220  0.2665499  0.2556977

 Al 
  0.7488862  0.0200943  0.2581555

 Al 
  0.7476870  0.2488095  0.9960608

 Al 
  0.0198196  0.4871133  0.9967167

 Al 
  0.9781694  0.7569625  0.2464977

 Al 
  0.2479704  0.4944384  0.2547151

 Al 
  0.2268551  0.7677714  0.0241585

 Al 
  0.0111529  0.0032833  0.5188716

 Al 
  0.0024330  0.2447614  0.7545518

 Al 
  0.2530456  0.9930239  0.7509789

 Al 
  0.2532078  0.2541644  0.5070937

 Al 
  0.0250879  0.4854364  0.4962106

 Al 
  0.0144782  0.7291582  0.7522400

 Al 
  0.2681229  0.4933407  0.7550072

 Al 
  0.2582248  0.7637803  0.4873076

 Al 
  0.4734419  0.5199780  0.0048401

 Al 
  0.4920041  0.7535902  0.2468974

 Al 
  0.7495310  0.5045109  0.2538699

 Al 
  0.7516076  0.7434558  0.9886305

 Al 
  0.4769727  0.9994245  0.4853052

 Al 
  0.5051297  0.2451116  0.7322286

 Al 
  0.7608621  0.9954643  0.7501324

 Al 
  0.7425177  0.2340788  0.4961388

 Al 
  0.4882753  0.5048834  0.4901775

 Al 
  0.5119276  0.7606368  0.7625613

 Al 
  0.7614734  0.4822880  0.7490446

 Al 
  0.7540543  0.7528909  0.5004158

