32 
charge = 0 
 Al 
  0.9811581  0.9775964  0.9869499

 Al 
  0.0042906  0.2590491  0.2594847

 Al 
  0.2464061  0.0128075  0.2394238

 Al 
  0.2580998  0.2429459  0.9877679

 Al 
  0.5011571  0.0119165  0.0031149

 Al 
  0.4943567  0.2641738  0.2516682

 Al 
  0.7467365  0.0238664  0.2592916

 Al 
  0.7470261  0.2555480  0.0007042

 Al 
  0.0160945  0.4915908  0.0023897

 Al 
  0.9803388  0.7595923  0.2495928

 Al 
  0.2561705  0.4982365  0.2508019

 Al 
  0.2309712  0.7654819  0.0099327

 Al 
  0.0084959  0.0008725  0.5164534

 Al 
  0.0037263  0.2373447  0.7584501

 Al 
  0.2508564  0.9878917  0.7488874

 Al 
  0.2457774  0.2465249  0.5085874

 Al 
  0.0217885  0.4793414  0.5013477

 Al 
  0.0171811  0.7283290  0.7471870

 Al 
  0.2660400  0.5013489  0.7524429

 Al 
  0.2580714  0.7537993  0.4844042

 Al 
  0.4701525  0.5200361  0.0133125

 Al 
  0.4921279  0.7487265  0.2452416

 Al 
  0.7493985  0.5008341  0.2607210

 Al 
  0.7512487  0.7468021  0.9940461

 Al 
  0.4847532  0.9936835  0.4807373

 Al 
  0.4965497  0.2479951  0.7344401

 Al 
  0.7619858  0.0032511  0.7452985

 Al 
  0.7377556  0.2391775  0.4964259

 Al 
  0.4966932  0.5030605  0.5009752

 Al 
  0.5124462  0.7568202  0.7625613

 Al 
  0.7634944  0.4810801  0.7512735

 Al 
  0.7486523  0.7602742  0.4960831

