32 
charge = 0 
 Al 
  0.9798785  0.9795938  0.9871776

 Al 
  0.0034194  0.2594179  0.2605180

 Al 
  0.2415648  0.0080046  0.2420165

 Al 
  0.2611628  0.2410772  0.9870712

 Al 
  0.4996980  0.0107346  0.0041582

 Al 
  0.4954371  0.2657133  0.2540332

 Al 
  0.7477823  0.0226424  0.2592310

 Al 
  0.7473776  0.2519058  0.9980385

 Al 
  0.0183964  0.4891998  0.9992488

 Al 
  0.9788525  0.7583003  0.2475632

 Al 
  0.2522264  0.4961004  0.2528142

 Al 
  0.2281533  0.7671415  0.0178098

 Al 
  0.0101393  0.0024417  0.5184669

 Al 
  0.0028810  0.2410438  0.7563598

 Al 
  0.2517796  0.9905512  0.7497711

 Al 
  0.2493614  0.2508415  0.5080367

 Al 
  0.0243899  0.4816853  0.4982748

 Al 
  0.0160574  0.7285827  0.7501844

 Al 
  0.2673222  0.4970237  0.7540295

 Al 
  0.2587657  0.7595379  0.4855527

 Al 
  0.4710287  0.5205287  0.0092396

 Al 
  0.4916811  0.7509183  0.2461363

 Al 
  0.7493936  0.5028860  0.2573202

 Al 
  0.7516521  0.7453913  0.9909844

 Al 
  0.4800889  0.9964135  0.4827620

 Al 
  0.5009034  0.2465658  0.7327286

 Al 
  0.7620266  0.9992896  0.7480273

 Al 
  0.7398025  0.2358608  0.4959556

 Al 
  0.4918865  0.5038649  0.4949842

 Al 
  0.5126368  0.7590194  0.7630798

 Al 
  0.7627036  0.4812324  0.7503341

 Al 
  0.7515507  0.7564885  0.4980929

