32 
charge = 0 
 Al 
  0.9845985  0.9777932  0.9883125

 Al 
  0.0052015  0.2568685  0.2561816

 Al 
  0.2529454  0.0199062  0.2362866

 Al 
  0.2524603  0.2464086  0.9894089

 Al 
  0.5038092  0.0127494  0.0010346

 Al 
  0.4925412  0.2610947  0.2478058

 Al 
  0.7457131  0.0233887  0.2574254

 Al 
  0.7464668  0.2611851  0.0053784

 Al 
  0.0115724  0.4954569  0.0076061

 Al 
  0.9841654  0.7611702  0.2537152

 Al 
  0.2599537  0.5015445  0.2490149

 Al 
  0.2373459  0.7618125  0.9975088

 Al 
  0.0054168  0.9975447  0.5108101

 Al 
  0.0055294  0.2327546  0.7617593

 Al 
  0.2504480  0.9842953  0.7477588

 Al 
  0.2417294  0.2392951  0.5085441

 Al 
  0.0153086  0.4782845  0.5067930

 Al 
  0.0172727  0.7286236  0.7414930

 Al 
  0.2636045  0.5078474  0.7495297

 Al 
  0.2552980  0.7441550  0.4837421

 Al 
  0.4721487  0.5173333  0.0170511

 Al 
  0.4940560  0.7469098  0.2439520

 Al 
  0.7497859  0.4978231  0.2653099

 Al 
  0.7497302  0.7478392  0.9992711

 Al 
  0.4929459  0.9904930  0.4793476

 Al 
  0.4905500  0.2495928  0.7388075

 Al 
  0.7594661  0.0086419  0.7409955

 Al 
  0.7361158  0.2460633  0.4982563

 Al 
  0.5049304  0.5022487  0.5106938

 Al 
  0.5110217  0.7528996  0.7602223

 Al 
  0.7637864  0.4825467  0.7520506

 Al 
  0.7440832  0.7654287  0.4939310

