32 
charge = 0 
 Al 
  0.9823486  0.9772462  0.9872717

 Al 
  0.0046990  0.2583746  0.2583672

 Al 
  0.2491745  0.0157727  0.2380563

 Al 
  0.2559490  0.2442701  0.9883533

 Al 
  0.5021744  0.0123806  0.0023613

 Al 
  0.4936439  0.2630142  0.2501077

 Al 
  0.7462267  0.0239716  0.2588102

 Al 
  0.7468071  0.2578276  0.0025209

 Al 
  0.0143978  0.4931055  0.0044441

 Al 
  0.9816457  0.7602940  0.2511435

 Al 
  0.2580640  0.4995928  0.2498404

 Al 
  0.2332706  0.7641354  0.0049181

 Al 
  0.0073128  0.9996436  0.5145216

 Al 
  0.0043896  0.2353250  0.7597805

 Al 
  0.2505445  0.9863522  0.7484419

 Al 
  0.2439409  0.2436637  0.5086951

 Al 
  0.0194854  0.4786124  0.5034800

 Al 
  0.0174793  0.7283414  0.7450312

 Al 
  0.2651156  0.5040184  0.7513205

 Al 
  0.2571531  0.7499802  0.4839934

 Al 
  0.4704680  0.5192243  0.0152344

 Al 
  0.4927442  0.7477711  0.2447008

 Al 
  0.7494975  0.4995669  0.2626504

 Al 
  0.7507623  0.7473603  0.9960881

 Al 
  0.4879771  0.9922590  0.4799131

 Al 
  0.4940349  0.2487402  0.7359673

 Al 
  0.7613212  0.0055257  0.7435461

 Al 
  0.7368955  0.2417417  0.4970175

 Al 
  0.4999208  0.5026719  0.5048500

 Al 
  0.5119994  0.7553091  0.7618200

 Al 
  0.7637369  0.4814390  0.7516620

 Al 
  0.7468195  0.7624684  0.4950906

