32 
charge = 0 
 Al 
  0.9820232  0.9772771  0.9871603

 Al 
  0.0046025  0.2585726  0.2586790

 Al 
  0.2484914  0.0150314  0.2383880

 Al 
  0.2565083  0.2439260  0.9881961

 Al 
  0.5019108  0.0122803  0.0025605

 Al 
  0.4938270  0.2633186  0.2505037

 Al 
  0.7463442  0.0239852  0.2589674

 Al 
  0.7468628  0.2572521  0.0020531

 Al 
  0.0148433  0.4927194  0.0039194

 Al 
  0.9812868  0.7601245  0.2507363

 Al 
  0.2576296  0.4992513  0.2500569

 Al 
  0.2326543  0.7644943  0.0061866

 Al 
  0.0076209  0.9999691  0.5150537

 Al 
  0.0042139  0.2358151  0.7594426

 Al 
  0.2506052  0.9867309  0.7485521

 Al 
  0.2443778  0.2443963  0.5086840

 Al 
  0.0201092  0.4787548  0.5029305

 Al 
  0.0174348  0.7283266  0.7455943

 Al 
  0.2653557  0.5033488  0.7516113

 Al 
  0.2574130  0.7509566  0.4840788

 Al 
  0.4703282  0.5194644  0.0147963

 Al 
  0.4925660  0.7479840  0.2448357

 Al 
  0.7494654  0.4998824  0.2621739

 Al 
  0.7509022  0.7472390  0.9955633

 Al 
  0.4871479  0.9926019  0.4800901

 Al 
  0.4946574  0.2485632  0.7355515

 Al 
  0.7615328  0.0049639  0.7439892

 Al 
  0.7370873  0.2410636  0.4968492

 Al 
  0.4990916  0.5027635  0.5038637

 Al 
  0.5121306  0.7557002  0.7620341

 Al 
  0.7636924  0.4813190  0.7515754

 Al 
  0.7472848  0.7619264  0.4953257

