32 
charge = 0 
 Al 
  0.9814254  0.9774528  0.9869994

 Al 
  0.0043983  0.2589104  0.2592396

 Al 
  0.2471053  0.0135451  0.2390723

 Al 
  0.2575850  0.2432615  0.9879028

 Al 
  0.5014009  0.0120477  0.0029380

 Al 
  0.4941835  0.2639003  0.2512858

 Al 
  0.7466004  0.0239332  0.2592075

 Al 
  0.7469729  0.2561098  0.0011423

 Al 
  0.0156923  0.4919608  0.0028897

 Al 
  0.9806334  0.7597718  0.2499592

 Al 
  0.2566791  0.4985706  0.2505396

 Al 
  0.2315022  0.7651688  0.0087001

 Al 
  0.0082125  0.0005854  0.5160215

 Al 
  0.0038810  0.2368261  0.7587768

 Al 
  0.2507611  0.9875031  0.7487748

 Al 
  0.2452985  0.2458294  0.5086295

 Al 
  0.0212626  0.4791186  0.5018625

 Al 
  0.0172850  0.7283204  0.7466734

 Al 
  0.2658198  0.5020110  0.7521732

 Al 
  0.2578746  0.7528711  0.4842842

 Al 
  0.4701710  0.5198703  0.0138322

 Al 
  0.4922578  0.7484629  0.2451067

 Al 
  0.7494159  0.5005185  0.2612074

 Al 
  0.7511447  0.7469593  0.9945411

 Al 
  0.4855317  0.9933147  0.4805034

 Al 
  0.4959173  0.2481894  0.7347866

 Al 
  0.7618657  0.0038253  0.7448678

 Al 
  0.7375179  0.2397790  0.4965522

 Al 
  0.4974754  0.5029578  0.5019232

 Al 
  0.5123546  0.7564576  0.7624053

 Al 
  0.7635711  0.4811395  0.7513811

 Al 
  0.7482031  0.7608274  0.4958220

