32 
charge = 0 
 Al 
  0.9826927  0.9772511  0.9874029

 Al 
  0.0047918  0.2581592  0.2580380

 Al 
  0.2498453  0.0165054  0.2377345

 Al 
  0.2553784  0.2446203  0.9885167

 Al 
  0.5024429  0.0124697  0.0021546

 Al 
  0.4934582  0.2627023  0.2497104

 Al 
  0.7461165  0.0239320  0.2586320

 Al 
  0.7467502  0.2584030  0.0029961

 Al 
  0.0139424  0.4934954  0.0049738

 Al 
  0.9820232  0.7604586  0.2515618

 Al 
  0.2584686  0.4999332  0.2496436

 Al 
  0.2339104  0.7637666  0.0036483

 Al 
  0.0070009  0.9993070  0.5139585

 Al 
  0.0045716  0.2348498  0.7601195

 Al 
  0.2504963  0.9859797  0.7483305

 Al 
  0.2435201  0.2429273  0.5086964

 Al 
  0.0188345  0.4784974  0.5040345

 Al 
  0.0175028  0.7283662  0.7444545

 Al 
  0.2648693  0.5046842  0.7510259

 Al 
  0.2568747  0.7489976  0.4839204

 Al 
  0.4706487  0.5189619  0.0156366

 Al 
  0.4929348  0.7475769  0.2445683

 Al 
  0.7495347  0.4992537  0.2631206

 Al 
  0.7506126  0.7474704  0.9966177

 Al 
  0.4888137  0.9919274  0.4797584

 Al 
  0.4934199  0.2489085  0.7364041

 Al 
  0.7610799  0.0060789  0.7431043

 Al 
  0.7367210  0.2424385  0.4971994

 Al 
  0.5007586  0.5025865  0.5058401

 Al 
  0.5118571  0.7549119  0.7615898

 Al 
  0.7637716  0.4815789  0.7517413

 Al 
  0.7463541  0.7630006  0.4948678

