32 
charge = 0 
 Al 
  0.9887209  0.9807906  0.9909448

 Al 
  0.0057039  0.2537659  0.2521917

 Al 
  0.2572831  0.0242884  0.2343968

 Al 
  0.2470546  0.2497401  0.9913371

 Al 
  0.5063140  0.0125538  0.9985422

 Al 
  0.4910970  0.2582013  0.2450052

 Al 
  0.7457069  0.0211660  0.2539528

 Al 
  0.7459383  0.2656601  0.0095206

 Al 
  0.0069873  0.4991857  0.0121207

 Al 
  0.9891231  0.7617247  0.2575702

 Al 
  0.2601146  0.5038426  0.2495904

 Al 
  0.2443456  0.7578994  0.9878286

 Al 
  0.0025803  0.9942750  0.5039689

 Al 
  0.0072930  0.2303933  0.7642753

 Al 
  0.2512289  0.9822657  0.7463084

 Al 
  0.2398904  0.2332979  0.5075838

 Al 
  0.0080677  0.4790951  0.5112928

 Al 
  0.0150760  0.7298636  0.7360972

 Al 
  0.2612346  0.5124066  0.7468962

 Al 
  0.2520556  0.7361752  0.4842236

 Al 
  0.4775927  0.5129808  0.0167083

 Al 
  0.4966128  0.7470373  0.2431216

 Al 
  0.7505000  0.4961103  0.2684966

 Al 
  0.7477018  0.7478726  0.0039590

 Al 
  0.4995297  0.9890723  0.4803970

 Al 
  0.4863843  0.2500532  0.7439953

 Al 
  0.7548116  0.0123323  0.7379090

 Al 
  0.7361591  0.2526793  0.5006868

 Al 
  0.5119994  0.5021435  0.5186315

 Al 
  0.5092198  0.7493292  0.7569019

 Al 
  0.7631392  0.4854289  0.7525098

 Al 
  0.7405314  0.7683679  0.4930362

