32 
charge = 0 
 Al 
  0.9874858  0.9796953  0.9900797

 Al 
  0.0056037  0.2547287  0.2533748

 Al 
  0.2562522  0.0233726  0.2348201

 Al 
  0.2485731  0.2487847  0.9907542

 Al 
  0.5056074  0.0127073  0.9993181

 Al 
  0.4914460  0.2589859  0.2456698

 Al 
  0.7456017  0.0219383  0.2551012

 Al 
  0.7460893  0.2644919  0.0084018

 Al 
  0.0083102  0.4980954  0.0109042

 Al 
  0.9875823  0.7616999  0.2565294

 Al 
  0.2604240  0.5033006  0.2491919

 Al 
  0.2422937  0.7590503  0.9902987

 Al 
  0.0033649  0.9951735  0.5060146

 Al 
  0.0068177  0.2308401  0.7636590

 Al 
  0.2508886  0.9826692  0.7468083

 Al 
  0.2402084  0.2348683  0.5079439

 Al 
  0.0101938  0.4787399  0.5101344

 Al 
  0.0159732  0.7293847  0.7375811

 Al 
  0.2619091  0.5113423  0.7476090

 Al 
  0.2529751  0.7382630  0.4839822

 Al 
  0.4756732  0.5144040  0.0172244

 Al 
  0.4958418  0.7468207  0.2433085

 Al 
  0.7502686  0.4964383  0.2677182

 Al 
  0.7483132  0.7479370  0.0026707

 Al 
  0.4978677  0.9892827  0.4798376

 Al 
  0.4874004  0.2500334  0.7424335

 Al 
  0.7563524  0.0114314  0.7386478

 Al 
  0.7359908  0.2508737  0.4999455

 Al 
  0.5101233  0.5020940  0.5165623

 Al 
  0.5097371  0.7503007  0.7579427

 Al 
  0.7634139  0.4844612  0.7523563

 Al 
  0.7414187  0.7677912  0.4931761

