32 
charge = 0 
 Al 
  0.9883100  0.9804106  0.9906502

 Al 
  0.0056755  0.2540889  0.2525828

 Al 
  0.2569638  0.0240223  0.2345255

 Al 
  0.2475509  0.2494233  0.9911428

 Al 
  0.5060814  0.0126132  0.9988045

 Al 
  0.4912046  0.2584538  0.2452094

 Al 
  0.7456623  0.0214321  0.2543451

 Al 
  0.7459891  0.2652864  0.0091592

 Al 
  0.0074241  0.4988231  0.0117284

 Al 
  0.9886045  0.7617309  0.2572360

 Al 
  0.2602483  0.5036756  0.2494394

 Al 
  0.2436662  0.7582818  0.9886119

 Al 
  0.0028365  0.9945659  0.5046483

 Al 
  0.0071407  0.2305183  0.7640835

 Al 
  0.2511064  0.9823808  0.7464828

 Al 
  0.2399757  0.2338003  0.5077088

 Al 
  0.0087718  0.4789689  0.5109252

 Al 
  0.0153978  0.7296928  0.7365774

 Al 
  0.2614574  0.5120823  0.7471264

 Al 
  0.2523551  0.7368422  0.4841357

 Al 
  0.4769281  0.5134659  0.0169162

 Al 
  0.4963566  0.7469506  0.2431786

 Al 
  0.7504220  0.4962019  0.2682528

 Al 
  0.7479048  0.7478986  0.0035407

 Al 
  0.4990062  0.9891218  0.4801891

 Al 
  0.4867024  0.2500557  0.7434743

 Al 
  0.7553364  0.0120489  0.7381380

 Al 
  0.7360898  0.2520977  0.5004393

 Al 
  0.5113967  0.5021199  0.5179706

 Al 
  0.5093881  0.7496436  0.7572521

 Al 
  0.7632370  0.4850973  0.7524541

 Al 
  0.7408086  0.7682045  0.4930721

