32 
charge = 0 
 Al 
  0.9858287  0.9784751  0.9890179

 Al 
  0.0054007  0.2559787  0.2549812

 Al 
  0.2545233  0.0216103  0.2355737

 Al 
  0.2507401  0.2474556  0.9899795

 Al 
  0.5046050  0.0127890  0.0003143

 Al 
  0.4920313  0.2601505  0.2467947

 Al 
  0.7456005  0.0228417  0.2565009

 Al 
  0.7463009  0.2627023  0.0067398

 Al 
  0.0101468  0.4966091  0.0090961

 Al 
  0.9855911  0.7614734  0.2549762

 Al 
  0.2603782  0.5023811  0.2489456

 Al 
  0.2394820  0.7606170  0.9941748

 Al 
  0.0045010  0.9964915  0.5087694

 Al 
  0.0061037  0.2317806  0.7626467

 Al 
  0.2505693  0.9834810  0.7473813

 Al 
  0.2409361  0.2372729  0.5083350

 Al 
  0.0131033  0.4783959  0.5083276

 Al 
  0.0168519  0.7288921  0.7397505

 Al 
  0.2628570  0.5095082  0.7486671

 Al 
  0.2542869  0.7414621  0.4837830

 Al 
  0.4734803  0.5161527  0.0173791

 Al 
  0.4948097  0.7467588  0.2436402

 Al 
  0.7499802  0.4971276  0.2664460

 Al 
  0.7491337  0.7479320  0.0007933

 Al 
  0.4952230  0.9898520  0.4794094

 Al 
  0.4890624  0.2498552  0.7403507

 Al 
  0.7582286  0.0099611  0.7398842

 Al 
  0.7359660  0.2482092  0.4989666

 Al 
  0.5072868  0.5021348  0.5133818

 Al 
  0.5104685  0.7517338  0.7592792

 Al 
  0.7636775  0.4833016  0.7521868

 Al 
  0.7428457  0.7666106  0.4935288

