32 
charge = 0 
 Al 
  0.9854153  0.9782226  0.9887716

 Al 
  0.0053388  0.2562806  0.2553846

 Al 
  0.2540233  0.0210757  0.2357965

 Al 
  0.2513056  0.2471115  0.9897876

 Al 
  0.5043438  0.0127853  0.0005581

 Al 
  0.4921959  0.2604599  0.2471165

 Al 
  0.7456265  0.0230397  0.2568227

 Al 
  0.7463554  0.2622123  0.0062955

 Al 
  0.0106183  0.4962279  0.0086110

 Al 
  0.9851084  0.7613843  0.2545629

 Al 
  0.2602767  0.5021150  0.2489431

 Al 
  0.2387704  0.7610143  0.9952490

 Al 
  0.0048005  0.9968380  0.5094550

 Al 
  0.0059155  0.2320801  0.7623620

 Al 
  0.2505173  0.9837335  0.7475113

 Al 
  0.2411762  0.2379276  0.5084129

 Al 
  0.0138384  0.4783427  0.5078313

 Al 
  0.0170152  0.7287931  0.7403223

 Al 
  0.2631033  0.5089798  0.7489493

 Al 
  0.2546248  0.7423333  0.4837570

 Al 
  0.4730038  0.5165598  0.0173135

 Al 
  0.4945547  0.7467898  0.2437379

 Al 
  0.7499121  0.4973430  0.2660834

 Al 
  0.7493354  0.7479110  0.0002958

 Al 
  0.4944891  0.9900463  0.4793636

 Al 
  0.4895352  0.2497810  0.7398322

 Al 
  0.7586592  0.0095428  0.7402381

 Al 
  0.7359995  0.2475051  0.4987265

 Al 
  0.5065207  0.5021645  0.5125118

 Al 
  0.5106542  0.7521150  0.7596010

 Al 
  0.7637221  0.4830380  0.7521435

 Al 
  0.7432441  0.7662442  0.4936501

