32 
charge = 0 
 Al 
  0.9866578  0.9790468  0.9895339

 Al 
  0.0055109  0.2553599  0.2541755

 Al 
  0.2554403  0.0225682  0.2351691

 Al 
  0.2496362  0.2481300  0.9903668

 Al 
  0.5051161  0.0127655  0.9998206

 Al 
  0.4917232  0.2595527  0.2461982

 Al 
  0.7455794  0.0224110  0.2558215

 Al 
  0.7461933  0.2636318  0.0075949

 Al 
  0.0092186  0.4973590  0.0100267

 Al 
  0.9865774  0.7616133  0.2557745

 Al 
  0.2604723  0.5028699  0.2490236

 Al 
  0.2408977  0.7598287  0.9921526

 Al 
  0.0039194  0.9958170  0.5073907

 Al 
  0.0064712  0.2312596  0.7631788

 Al 
  0.2507079  0.9830355  0.7471066

 Al 
  0.2405265  0.2360254  0.5081543

 Al 
  0.0116393  0.4785456  0.5092681

 Al 
  0.0164583  0.7291186  0.7386404

 Al 
  0.2623744  0.5104834  0.7481226

 Al 
  0.2536211  0.7398025  0.4838634

 Al 
  0.4745211  0.5153012  0.0173828

 Al 
  0.4953245  0.7467551  0.2434620

 Al 
  0.7501213  0.4967477  0.2671167

 Al 
  0.7487253  0.7479494  0.0017561

 Al 
  0.4966066  0.9895265  0.4795765

 Al 
  0.4881850  0.2499678  0.7413915

 Al 
  0.7573189  0.0107371  0.7392295

 Al 
  0.7359487  0.2495755  0.4994542

 Al 
  0.5087520  0.5020989  0.5150327

 Al 
  0.5100985  0.7509975  0.7586196

 Al 
  0.7635612  0.4838622  0.7522697

 Al 
  0.7420982  0.7672603  0.4933271

