32 
charge = 0 
 Al 
  0.9895426  0.9815925  0.9915499

 Al 
  0.0057448  0.2531125  0.2514158

 Al 
  0.2578573  0.0247042  0.2341778

 Al 
  0.2460893  0.2503676  0.9917269

 Al 
  0.5067682  0.0124090  0.9980088

 Al 
  0.4909138  0.2577212  0.2446488

 Al 
  0.7458220  0.0206141  0.2531434

 Al 
  0.7458418  0.2663680  0.0102087

 Al 
  0.0061235  0.4999158  0.0128719

 Al 
  0.9901750  0.7616702  0.2582038

 Al 
  0.2597656  0.5041396  0.2499406

 Al 
  0.2456920  0.7571395  0.9863757

 Al 
  0.0020841  0.9937231  0.5026174

 Al 
  0.0075751  0.2302089  0.7646169

 Al 
  0.2514999  0.9820900  0.7459309

 Al 
  0.2397753  0.2323573  0.5073152

 Al 
  0.0066729  0.4793636  0.5119747

 Al 
  0.0143619  0.7302411  0.7351777

 Al 
  0.2607977  0.5129659  0.7464556

 Al 
  0.2514801  0.7349215  0.4844228

 Al 
  0.4789986  0.5119771  0.0161923

 Al 
  0.4971214  0.7472501  0.2430251

 Al 
  0.7506584  0.4959816  0.2689409

 Al 
  0.7473021  0.7478046  0.0047659

 Al 
  0.5004876  0.9890340  0.4808772

 Al 
  0.4858052  0.2500223  0.7450374

 Al 
  0.7537263  0.0128484  0.7375031

 Al 
  0.7363348  0.2537882  0.5011819

 Al 
  0.5131343  0.5022103  0.5198691

 Al 
  0.5088981  0.7487327  0.7561915

 Al 
  0.7629226  0.4861220  0.7526372

 Al 
  0.7400277  0.7686043  0.4929966

