32 
charge = 0 
 Al 
  0.9924855  0.9848188  0.9938803

 Al 
  0.0057064  0.2506992  0.2487550

 Al 
  0.2592718  0.0249245  0.2337496

 Al 
  0.2429001  0.2526360  0.9931513

 Al 
  0.5083313  0.0116232  0.9959730

 Al 
  0.4906193  0.2562868  0.2439310

 Al 
  0.7464804  0.0184174  0.2499740

 Al 
  0.7455138  0.2684941  0.0123113

 Al 
  0.0031001  0.5026434  0.0151923

 Al 
  0.9941203  0.7609710  0.2600267

 Al 
  0.2577632  0.5048129  0.2515890

 Al 
  0.2503849  0.7544131  0.9823288

 Al 
  0.0004443  0.9920907  0.4978838

 Al 
  0.0083164  0.2302398  0.7653520

 Al 
  0.2526892  0.9820232  0.7442540

 Al 
  0.2399176  0.2296409  0.5062126

 Al 
  0.0018081  0.4804378  0.5138607

 Al 
  0.0110403  0.7320207  0.7323610

 Al 
  0.2592421  0.5139696  0.7450955

 Al 
  0.2497178  0.7312732  0.4853621

 Al 
  0.4847891  0.5080392  0.0134053

 Al 
  0.4988689  0.7483763  0.2428234

 Al 
  0.7512314  0.4961017  0.2700906

 Al 
  0.7459544  0.7474556  0.0073684

 Al 
  0.5029949  0.9895698  0.4832409

 Al 
  0.4842916  0.2497005  0.7487649

 Al 
  0.7495297  0.0142394  0.7365836

 Al 
  0.7373298  0.2571073  0.5029652

 Al 
  0.5164670  0.5026286  0.5234308

 Al 
  0.5079390  0.7469209  0.7535481

 Al 
  0.7619425  0.4889102  0.7533773

 Al 
  0.7388100  0.7685102  0.4931588

