32 
charge = 0 
 Al 
  0.9891317  0.9811841  0.9912442

 Al 
  0.0057274  0.2534404  0.2518019

 Al 
  0.2575813  0.0245161  0.2342817

 Al 
  0.2465670  0.2500532  0.9915326

 Al 
  0.5065418  0.0124858  0.9982773

 Al 
  0.4910004  0.2579563  0.2448183

 Al 
  0.7457601  0.0208938  0.2535530

 Al 
  0.7458901  0.2660215  0.0098708

 Al 
  0.0065541  0.4995495  0.0125019

 Al 
  0.9896466  0.7617049  0.2578932

 Al 
  0.2599537  0.5039973  0.2497574

 Al 
  0.2450200  0.7575194  0.9870836

 Al 
  0.0023291  0.9939941  0.5032919

 Al 
  0.0074378  0.2302893  0.7644535

 Al 
  0.2513601  0.9821692  0.7461240

 Al 
  0.2398235  0.2328177  0.5074514

 Al 
  0.0073684  0.4792263  0.5116418

 Al 
  0.0147307  0.7300455  0.7356307

 Al 
  0.2610155  0.5127011  0.7466722

 Al 
  0.2517635  0.7355354  0.4843201

 Al 
  0.4782833  0.5124845  0.0164670

 Al 
  0.4968677  0.7471375  0.2430709

 Al 
  0.7505792  0.4960373  0.2687268

 Al 
  0.7475014  0.7478405  0.0043661

 Al 
  0.5000223  0.9890426  0.4806260

 Al 
  0.4860861  0.2500421  0.7445164

 Al 
  0.7542745  0.0125984  0.7376974

 Al 
  0.7362408  0.2532437  0.5009344

 Al 
  0.5125773  0.5021732  0.5192639

 Al 
  0.5090565  0.7490260  0.7565479

 Al 
  0.7630340  0.4857705  0.7525704

 Al 
  0.7402703  0.7685003  0.4930115

