32 
charge = 0 
 Al 
  0.9903668  0.9824464  0.9921798

 Al 
  0.0057646  0.2524454  0.2506485

 Al 
  0.2583498  0.0249653  0.2340033

 Al 
  0.2451525  0.2509975  0.9921217

 Al 
  0.5072162  0.0122308  0.9974568

 Al 
  0.4907715  0.2572744  0.2443592

 Al 
  0.7459717  0.0200312  0.2522944

 Al 
  0.7457465  0.2670264  0.0108559

 Al 
  0.0052658  0.5006584  0.0135785

 Al 
  0.9912541  0.7615539  0.2587867

 Al 
  0.2593127  0.5043884  0.2503502

 Al 
  0.2470274  0.7563759  0.9850639

 Al 
  0.0016039  0.9932083  0.5012710

 Al 
  0.0078288  0.2301136  0.7649015

 Al 
  0.2518019  0.9819860  0.7455138

 Al 
  0.2397319  0.2314935  0.5070269

 Al 
  0.0052881  0.4796520  0.5125897

 Al 
  0.0135488  0.7306705  0.7343102

 Al 
  0.2603633  0.5134053  0.7460423

 Al 
  0.2509381  0.7337694  0.4846517

 Al 
  0.4805084  0.5109240  0.0155487

 Al 
  0.4976251  0.7475150  0.2429471

 Al 
  0.7508205  0.4959247  0.2693307

 Al 
  0.7469073  0.7477204  0.0055393

 Al 
  0.5013329  0.9890785  0.4814428

 Al 
  0.4852965  0.2499604  0.7460844

 Al 
  0.7525939  0.0133075  0.7371615

 Al 
  0.7365601  0.2548228  0.5016806

 Al 
  0.5141837  0.5023019  0.5210027

 Al 
  0.5085961  0.7481721  0.7554638

 Al 
  0.7626788  0.4868558  0.7527957

 Al 
  0.7395946  0.7687256  0.4929966

