32 
charge = 0 
 Al 
  0.9916229  0.9838288  0.9931761

 Al 
  0.0057485  0.2514145  0.2495099

 Al 
  0.2589525  0.0250619  0.2338213

 Al 
  0.2437899  0.2519640  0.9927293

 Al 
  0.5078833  0.0118955  0.9965868

 Al 
  0.4906428  0.2566606  0.2440510

 Al 
  0.7462551  0.0190931  0.2509393

 Al 
  0.7456054  0.2679335  0.0117544

 Al 
  0.0039751  0.5018205  0.0145711

 Al 
  0.9929397  0.7612581  0.2595676

 Al 
  0.2584513  0.5046767  0.2510594

 Al 
  0.2490335  0.7552126  0.9833350

 Al 
  0.0009034  0.9925090  0.4992463

 Al 
  0.0081469  0.2301260  0.7652183

 Al 
  0.2523130  0.9819588  0.7447985

 Al 
  0.2397951  0.2303314  0.5065554

 Al 
  0.0032090  0.4801136  0.5133954

 Al 
  0.0121306  0.7314279  0.7331048

 Al 
  0.2597013  0.5138359  0.7454606

 Al 
  0.2501819  0.7322100  0.4850527

 Al 
  0.4829835  0.5092421  0.0143520

 Al 
  0.4983726  0.7479989  0.2428617

 Al 
  0.7510655  0.4959742  0.2698220

 Al 
  0.7463294  0.7475694  0.0066507

 Al 
  0.5024033  0.9893062  0.4824538

 Al 
  0.4846505  0.2498206  0.7476783

 Al 
  0.7507982  0.0139003  0.7367692

 Al 
  0.7369858  0.2562435  0.5024429

 Al 
  0.5156094  0.5024826  0.5225261

 Al 
  0.5081840  0.7473974  0.7543339

 Al 
  0.7622605  0.4880464  0.7531075

 Al 
  0.7390723  0.7686872  0.4930659

