32 
charge = 0 
 Al 
  0.9952737  0.9881429  0.9962093

 Al 
  0.0054057  0.2483862  0.2464927

 Al 
  0.2598844  0.0234580  0.2337545

 Al 
  0.2402752  0.2548611  0.9945498

 Al 
  0.5097272  0.0105378  0.9939384

 Al 
  0.4908755  0.2553104  0.2440028

 Al 
  0.7473145  0.0160896  0.2467242

 Al 
  0.7452564  0.2699953  0.0137889

 Al 
  0.0003218  0.5054676  0.0168940

 Al 
  0.9980236  0.7596072  0.2610626

 Al 
  0.2551730  0.5049540  0.2533946

 Al 
  0.2545975  0.7518254  0.9799490

 Al 
  0.9990619  0.9911069  0.4936798

 Al 
  0.0085689  0.2310888  0.7653247

 Al 
  0.2539763  0.9826061  0.7422368

 Al 
  0.2406675  0.2279677  0.5050319

 Al 
  0.9974618  0.4814910  0.5149262

 Al 
  0.0069749  0.7343337  0.7304230

 Al 
  0.2576902  0.5135723  0.7440770

 Al 
  0.2485162  0.7289119  0.4865526

 Al 
  0.4910524  0.5039812  0.0098411

 Al 
  0.5003465  0.7497574  0.2427838

 Al 
  0.7517276  0.4969779  0.2706141

 Al 
  0.7448926  0.7470670  0.0094599

 Al 
  0.5042176  0.9909584  0.4861863

 Al 
  0.4835268  0.2492575  0.7521905

 Al 
  0.7453443  0.0150191  0.7364029

 Al 
  0.7386615  0.2592990  0.5046483

 Al 
  0.5186030  0.5031644  0.5256349

 Al 
  0.5073561  0.7456859  0.7509876

 Al 
  0.7607656  0.4919051  0.7545777

 Al 
  0.7384585  0.7672133  0.4936563

