32 
charge = 0 
 Al 
  0.9943047  0.9869759  0.9953950

 Al 
  0.0055369  0.2491882  0.2472464

 Al 
  0.2597334  0.0241312  0.2337174

 Al 
  0.2411440  0.2540790  0.9940572

 Al 
  0.5092533  0.0109475  0.9946500

 Al 
  0.4907319  0.2556123  0.2439025

 Al 
  0.7470125  0.0169224  0.2478702

 Al 
  0.7453381  0.2695250  0.0133298

 Al 
  0.0012784  0.5044577  0.0163532

 Al 
  0.9966561  0.7601517  0.2607792

 Al 
  0.2561210  0.5049540  0.2527622

 Al 
  0.2531620  0.7527239  0.9806371

 Al 
  0.9995260  0.9913853  0.4951017

 Al 
  0.0085318  0.2307188  0.7654114

 Al 
  0.2535246  0.9823486  0.7429768

 Al 
  0.2403544  0.2284565  0.5054527

 Al 
  0.9989382  0.4811259  0.5146255

 Al 
  0.0084686  0.7334637  0.7310170

 Al 
  0.2582446  0.5138434  0.7444050

 Al 
  0.2488825  0.7296235  0.4861071

 Al 
  0.4888161  0.5054131  0.0111480

 Al 
  0.4998564  0.7492575  0.2427850

 Al 
  0.7515643  0.4965992  0.2704878

 Al 
  0.7452329  0.7472031  0.0087706

 Al 
  0.5038996  0.9903916  0.4851047

 Al 
  0.4837298  0.2494146  0.7510198

 Al 
  0.7468034  0.0147975  0.7363980

 Al 
  0.7381664  0.2586369  0.5040654

 Al 
  0.5179669  0.5029739  0.5249876

 Al 
  0.5075231  0.7460646  0.7518774

 Al 
  0.7611975  0.4908334  0.7541038

 Al 
  0.7384993  0.7677776  0.4934533

