32 
charge = 0 
 Al 
  0.9973405  0.9906292  0.9979357

 Al 
  0.0050394  0.2467068  0.2450126

 Al 
  0.2600354  0.0215262  0.2339290

 Al 
  0.2385748  0.2565541  0.9956314

 Al 
  0.5106950  0.0095676  0.9924335

 Al 
  0.4913519  0.2547758  0.2444458

 Al 
  0.7479753  0.0142394  0.2442602

 Al 
  0.7451252  0.2708269  0.0145958

 Al 
  0.9983182  0.5077088  0.0178828

 Al 
  0.0009504  0.7582199  0.2614116

 Al 
  0.2530617  0.5047943  0.2547164

 Al 
  0.2575553  0.7499146  0.9789020

 Al 
  0.9981251  0.9907319  0.4908024

 Al 
  0.0084736  0.2320900  0.7648842

 Al 
  0.2549205  0.9833028  0.7405549

 Al 
  0.2414744  0.2272264  0.5041062

 Al 
  0.9944471  0.4822645  0.5153507

 Al 
  0.0035716  0.7364066  0.7294206

 Al 
  0.2564366  0.5125835  0.7434533

 Al 
  0.2479023  0.7277338  0.4876145

 Al 
  0.4959470  0.5008997  0.0068994

 Al 
  0.5012970  0.7508589  0.2428221

 Al 
  0.7520395  0.4980075  0.2707081

 Al 
  0.7442800  0.7467922  0.0108014

 Al 
  0.5045926  0.9924125  0.4886305

 Al 
  0.4832781  0.2489382  0.7546013

 Al 
  0.7422751  0.0153396  0.7366182

 Al 
  0.7397975  0.2603856  0.5058834

 Al 
  0.5196166  0.5035605  0.5266336

 Al 
  0.5071135  0.7450473  0.7491114

 Al 
  0.7597743  0.4942738  0.7557769

 Al 
  0.7386157  0.7656812  0.4941698

