32 
charge = 0 
 Al 
  0.0028254  0.9969197  0.0021769

 Al 
  0.0035654  0.2426118  0.2420239

 Al 
  0.2597607  0.0137233  0.2347879

 Al 
  0.2351047  0.2611665  0.9987513

 Al 
  0.5127939  0.0064663  0.9888025

 Al 
  0.4934669  0.2538971  0.2468665

 Al 
  0.7496436  0.0088857  0.2378855

 Al 
  0.7452688  0.2718219  0.0156898

 Al 
  0.9933023  0.5140946  0.0194854

 Al 
  0.0086196  0.7533427  0.2607371

 Al 
  0.2473801  0.5033748  0.2577719

 Al 
  0.2647010  0.7449384  0.9784379

 Al 
  0.9959012  0.9911131  0.4842854

 Al 
  0.0071729  0.2357705  0.7622073

 Al 
  0.2569848  0.9857594  0.7357569

 Al 
  0.2442119  0.2271076  0.5014838

 Al 
  0.9875167  0.4844042  0.5153012

 Al 
  0.9936389  0.7432516  0.7284318

 Al 
  0.2525321  0.5077583  0.7422120

 Al 
  0.2472749  0.7265643  0.4911960

 Al 
  0.5090627  0.4930053  0.9986919

 Al 
  0.5030939  0.7537325  0.2432107

 Al 
  0.7525123  0.5018712  0.2699235

 Al 
  0.7434632  0.7463170  0.0134771

 Al 
  0.5041768  0.9974370  0.4954433

 Al 
  0.4835664  0.2484073  0.7602631

 Al 
  0.7349352  0.0152876  0.7383694

 Al 
  0.7430956  0.2613237  0.5090590

 Al 
  0.5202082  0.5042337  0.5269665

 Al 
  0.5070937  0.7443382  0.7444285

 Al 
  0.7567695  0.5009542  0.7600329

 Al 
  0.7403557  0.7601208  0.4958455

