32 
charge = 0 
 Al 
  0.0006510  0.9945089  0.0005866

 Al 
  0.0042362  0.2441500  0.2430263

 Al 
  0.2599537  0.0172417  0.2343956

 Al 
  0.2362866  0.2593238  0.9974655

 Al 
  0.5120662  0.0077806  0.9901428

 Al 
  0.4924967  0.2541681  0.2457106

 Al 
  0.7490137  0.0110824  0.2403532

 Al 
  0.7450955  0.2716685  0.0154336

 Al 
  0.9952230  0.5115056  0.0190312

 Al 
  0.0056111  0.7554601  0.2612816

 Al 
  0.2496040  0.5041149  0.2566593

 Al 
  0.2619994  0.7468875  0.9782412

 Al 
  0.9967415  0.9907208  0.4866591

 Al 
  0.0078672  0.2341617  0.7635191

 Al 
  0.2562769  0.9847062  0.7376813

 Al 
  0.2430498  0.2268328  0.5025543

 Al 
  0.9900512  0.4835231  0.5155116

 Al 
  0.9976870  0.7403012  0.7285271

 Al 
  0.2541941  0.5100230  0.7426365

 Al 
  0.2473541  0.7267004  0.4896342

 Al 
  0.5039144  0.4960311  0.0019603

 Al 
  0.5025209  0.7526261  0.2429991

 Al 
  0.7524033  0.5001708  0.2704124

 Al 
  0.7436365  0.7464432  0.0125848

 Al 
  0.5045381  0.9952787  0.4927405

 Al 
  0.4833065  0.2485471  0.7581704

 Al 
  0.7376467  0.0154646  0.7374783

 Al 
  0.7417603  0.2612866  0.5078251

 Al 
  0.5203369  0.5040629  0.5272388

 Al 
  0.5070034  0.7444508  0.7462143

 Al 
  0.7580157  0.4982488  0.7581778

 Al 
  0.7394584  0.7625278  0.4951475

