32 
charge = 0 
 Al 
  0.0017524  0.9957477  0.0014121

 Al 
  0.0039107  0.2433531  0.2424843

 Al 
  0.2598658  0.0155277  0.2345874

 Al 
  0.2356529  0.2602557  0.9981078

 Al 
  0.5124561  0.0071284  0.9894411

 Al 
  0.4929669  0.2540196  0.2462650

 Al 
  0.7493404  0.0099809  0.2390884

 Al 
  0.7451587  0.2717935  0.0155933

 Al 
  0.9942354  0.5128112  0.0192936

 Al 
  0.0071420  0.7544156  0.2610527

 Al 
  0.2484679  0.5037709  0.2572410

 Al 
  0.2633917  0.7458950  0.9782783

 Al 
  0.9963096  0.9908792  0.4854190

 Al 
  0.0075454  0.2349537  0.7628966

 Al 
  0.2566593  0.9852297  0.7367049

 Al 
  0.2436278  0.2269170  0.5020172

 Al 
  0.9887283  0.4839612  0.5154361

 Al 
  0.9956500  0.7417554  0.7284268

 Al 
  0.2533736  0.5089327  0.7424113

 Al 
  0.2472860  0.7265767  0.4904002

 Al 
  0.5065405  0.4944718  0.0002995

 Al 
  0.5028365  0.7531954  0.2430956

 Al 
  0.7524739  0.5010074  0.2701945

 Al 
  0.7435226  0.7463653  0.0130674

 Al 
  0.5043822  0.9963480  0.4941166

 Al 
  0.4834154  0.2484629  0.7592607

 Al 
  0.7362309  0.0154027  0.7378966

 Al 
  0.7424348  0.2613621  0.5084550

 Al 
  0.5203344  0.5041706  0.5271707

 Al 
  0.5070343  0.7443654  0.7452960

 Al 
  0.7573920  0.4996114  0.7590924

 Al 
  0.7398805  0.7613361  0.4954977

