32 
charge = 0 
 Al 
  0.0022932  0.9963442  0.0018031

 Al 
  0.0037412  0.2429744  0.2422430

 Al 
  0.2598151  0.0146342  0.2346864

 Al 
  0.2353671  0.2607148  0.9984295

 Al 
  0.5126318  0.0067979  0.9891132

 Al 
  0.4932144  0.2539552  0.2465608

 Al 
  0.7494951  0.0094315  0.2384783

 Al 
  0.7452069  0.2718195  0.0156490

 Al 
  0.9937614  0.5134573  0.0193988

 Al 
  0.0078895  0.7538810  0.2609054

 Al 
  0.2479172  0.5035790  0.2575132

 Al 
  0.2640587  0.7454111  0.9783427

 Al 
  0.9961017  0.9909868  0.4848374

 Al 
  0.0073647  0.2353596  0.7625600

 Al 
  0.2568289  0.9854945  0.7362259

 Al 
  0.2439199  0.2269987  0.5017499

 Al 
  0.9881070  0.4841827  0.5153755

 Al 
  0.9946389  0.7424991  0.7284157

 Al 
  0.2529541  0.5083548  0.7423085

 Al 
  0.2472736  0.7265569  0.4907950

 Al 
  0.5078177  0.4937243  0.9994876

 Al 
  0.5029739  0.7534689  0.2431501

 Al 
  0.7524974  0.5014368  0.2700658

 Al 
  0.7434855  0.7463368  0.0132828

 Al 
  0.5042857  0.9968912  0.4947886

 Al 
  0.4834860  0.2484320  0.7597730

 Al 
  0.7355663  0.0153507  0.7381268

 Al 
  0.7427677  0.2613571  0.5087607

 Al 
  0.5202861  0.5042077  0.5270853

 Al 
  0.5070603  0.7443443  0.7448542

 Al 
  0.7570801  0.5002859  0.7595614

 Al 
  0.7401119  0.7607297  0.4956735

