32 
charge = 0 
 Al 
  0.0038550  0.9980075  0.0028650

 Al 
  0.0032053  0.2419410  0.2416539

 Al 
  0.2596456  0.0118596  0.2349933

 Al 
  0.2346493  0.2620427  0.9993899

 Al 
  0.5130711  0.0058054  0.9882382

 Al 
  0.4939867  0.2537968  0.2475014

 Al 
  0.7499171  0.0078090  0.2367618

 Al 
  0.7454334  0.2717452  0.0157245

 Al 
  0.9924373  0.5153371  0.0196042

 Al 
  0.0100243  0.7522647  0.2603398

 Al 
  0.2463554  0.5029281  0.2582459

 Al 
  0.2659113  0.7440300  0.9787139

 Al 
  0.9955200  0.9914187  0.4832719

 Al 
  0.0067571  0.2365947  0.7614660

 Al 
  0.2572447  0.9862878  0.7348535

 Al 
  0.2447886  0.2274033  0.5009591

 Al 
  0.9864363  0.4848510  0.5151119

 Al 
  0.9916873  0.7447738  0.7285394

 Al 
  0.2516794  0.5065232  0.7420425

 Al 
  0.2473194  0.7266620  0.4920128

 Al 
  0.5114363  0.4916576  0.9971672

 Al 
  0.5032919  0.7542263  0.2433481

 Al 
  0.7525123  0.5027474  0.2696005

 Al 
  0.7434582  0.7462997  0.0138087

 Al 
  0.5039342  0.9985261  0.4966957

 Al 
  0.4837520  0.2483825  0.7611628

 Al 
  0.7337817  0.0151243  0.7388867

 Al 
  0.7437317  0.2611727  0.5096282

 Al 
  0.5199644  0.5042473  0.5266299

 Al 
  0.5071791  0.7443691  0.7436241

 Al 
  0.7561618  0.5022586  0.7609784

 Al 
  0.7408717  0.7589067  0.4961809

