32 
charge = 0 
 Al 
  0.0078697  0.0017239  0.0048265

 Al 
  0.0014368  0.2399201  0.2411626

 Al 
  0.2591196  0.0032177  0.2359376

 Al 
  0.2337471  0.2654596  0.0021298

 Al 
  0.5134907  0.0029615  0.9867989

 Al 
  0.4964742  0.2535258  0.2505532

 Al 
  0.7507227  0.0033736  0.2328857

 Al 
  0.7469482  0.2699619  0.0152369

 Al 
  0.9895624  0.5201141  0.0192231

 Al 
  0.0152926  0.7476709  0.2577793

 Al 
  0.2427070  0.5003836  0.2597000

 Al 
  0.2700498  0.7405970  0.9811296

 Al 
  0.9941327  0.9935016  0.4802151

 Al 
  0.0044825  0.2402022  0.7577150

 Al 
  0.2574922  0.9884944  0.7316172

 Al 
  0.2471363  0.2298871  0.4987166

 Al 
  0.9832583  0.4869462  0.5137468

 Al 
  0.9840194  0.7517499  0.7302361

 Al 
  0.2477835  0.5005854  0.7416205

 Al 
  0.2480756  0.7282746  0.4958418

 Al 
  0.5197564  0.4874128  0.9917281

 Al 
  0.5034924  0.7558116  0.2442552

 Al 
  0.7519937  0.5065566  0.2676093

 Al 
  0.7440288  0.7467106  0.0143186

 Al 
  0.5026669  0.0031459  0.5010990

 Al 
  0.4849067  0.2485842  0.7638248

 Al 
  0.7306074  0.0138545  0.7416168

 Al 
  0.7461537  0.2592879  0.5116814

 Al 
  0.5175895  0.5036298  0.5236622

 Al 
  0.5077335  0.7451450  0.7408507

 Al 
  0.7537869  0.5074551  0.7648965

 Al 
  0.7434842  0.7538525  0.4973850

