32 
charge = 0 
 Al 
  0.0100923  0.0032375  0.0050245

 Al 
  0.0000829  0.2395042  0.2418791

 Al 
  0.2588436  0.9972576  0.2366418

 Al 
  0.2341035  0.2673370  0.0039169

 Al 
  0.5129585  0.0011695  0.9868596

 Al 
  0.4983194  0.2534132  0.2526867

 Al 
  0.7508861  0.0007153  0.2313388

 Al 
  0.7488194  0.2672826  0.0144139

 Al 
  0.9885637  0.5225014  0.0180895

 Al 
  0.0179719  0.7449780  0.2555294

 Al 
  0.2410920  0.4981300  0.2602062

 Al 
  0.2718059  0.7387394  0.9836283

 Al 
  0.9934224  0.9954210  0.4793723

 Al 
  0.0026001  0.2424954  0.7548896

 Al 
  0.2567336  0.9898248  0.7302794

 Al 
  0.2484543  0.2325702  0.4972204

 Al 
  0.9824860  0.4885761  0.5124474

 Al 
  0.9798785  0.7567026  0.7324724

 Al 
  0.2450238  0.4963715  0.7416192

 Al 
  0.2489604  0.7303166  0.4986077

 Al 
  0.5231239  0.4862692  0.9895228

 Al 
  0.5031385  0.7562707  0.2452094

 Al 
  0.7511324  0.5088944  0.2657591

 Al 
  0.7448592  0.7475249  0.0138298

 Al 
  0.5018910  0.0059514  0.5029095

 Al 
  0.4859339  0.2489283  0.7643916

 Al 
  0.7303265  0.0125613  0.7437775

 Al 
  0.7473887  0.2570529  0.5126330

 Al 
  0.5149448  0.5025358  0.5204433

 Al 
  0.5081295  0.7461759  0.7396490

 Al 
  0.7526273  0.5103720  0.7669175

 Al 
  0.7454049  0.7509183  0.4978343

