32 
charge = 0 
 Al 
  0.0104413  0.0034268  0.0049663

 Al 
  0.9998354  0.2395079  0.2420808

 Al 
  0.2588040  0.9962291  0.2367754

 Al 
  0.2342347  0.2676291  0.0042226

 Al 
  0.5127989  0.0008712  0.9869487

 Al 
  0.4986548  0.2533946  0.2530518

 Al 
  0.7508873  0.0002822  0.2311556

 Al 
  0.7492104  0.2667021  0.0142369

 Al 
  0.9884659  0.5228380  0.0178234

 Al 
  0.0183679  0.7445597  0.2551173

 Al 
  0.2408779  0.4977006  0.2602668

 Al 
  0.2720385  0.7384449  0.9841109

 Al 
  0.9933147  0.9957799  0.4793129

 Al 
  0.0022511  0.2428766  0.7543872

 Al 
  0.2565281  0.9900438  0.7301198

 Al 
  0.2486572  0.2331036  0.4969593

 Al 
  0.9824464  0.4888817  0.5121987

 Al 
  0.9792473  0.7575813  0.7329414

 Al 
  0.2445349  0.4956413  0.7416415

 Al 
  0.2491312  0.7307361  0.4990978

 Al 
  0.5235261  0.4862037  0.9892703

 Al 
  0.5030518  0.7562992  0.2454049

 Al 
  0.7509443  0.5092693  0.2653990

 Al 
  0.7450299  0.7477117  0.0136862

 Al 
  0.5017771  0.0064069  0.5031323

 Al 
  0.4861306  0.2489976  0.7643966

 Al 
  0.7304205  0.0123088  0.7441711

 Al 
  0.7475719  0.2566049  0.5127642

 Al 
  0.5144188  0.5022944  0.5198047

 Al 
  0.5081914  0.7463876  0.7394869

 Al 
  0.7524702  0.5108287  0.7671922

 Al 
  0.7457403  0.7504554  0.4978788

