32 
charge = 0 
 Al 
  0.0090132  0.0025642  0.0050394

 Al 
  0.0007846  0.2396181  0.2414163

 Al 
  0.2589723  0.0002747  0.2362742

 Al 
  0.2338350  0.2664274  0.0030184

 Al 
  0.5133112  0.0020618  0.9867271

 Al 
  0.4973665  0.2534677  0.2516076

 Al 
  0.7508391  0.0020284  0.2320145

 Al 
  0.7477848  0.2687874  0.0148730

 Al 
  0.9889746  0.5213851  0.0187528

 Al 
  0.0167009  0.7462861  0.2567039

 Al 
  0.2418259  0.4993231  0.2599871

 Al 
  0.2710101  0.7396428  0.9822942

 Al 
  0.9937627  0.9944099  0.4796879

 Al 
  0.0035840  0.2413532  0.7563400

 Al 
  0.2572125  0.9891676  0.7308673

 Al 
  0.2478157  0.2311197  0.4979803

 Al 
  0.9827533  0.4877246  0.5131367

 Al 
  0.9818672  0.7541693  0.7312361

 Al 
  0.2464346  0.4985112  0.7415920

 Al 
  0.2484865  0.7291978  0.4971907

 Al 
  0.5216474  0.4866776  0.9904819

 Al 
  0.5033550  0.7561012  0.2446896

 Al 
  0.7516187  0.5077447  0.2667442

 Al 
  0.7444037  0.7470546  0.0141540

 Al 
  0.5022610  0.0045678  0.5021088

 Al 
  0.4853918  0.2487402  0.7642221

 Al 
  0.7302856  0.0132543  0.7426575

 Al 
  0.7468034  0.2582657  0.5121937

 Al 
  0.5163754  0.5031558  0.5221808

 Al 
  0.5079365  0.7456116  0.7401973

 Al 
  0.7531620  0.5089562  0.7659806

 Al 
  0.7444260  0.7523489  0.4976474

