32 
charge = 0 
 Al 
  0.0137011  0.0044763  0.0029033

 Al 
  0.9969284  0.2407962  0.2454185

 Al 
  0.2584884  0.9853683  0.2385637

 Al 
  0.2366541  0.2702403  0.0074600

 Al 
  0.5099339  0.9978999  0.9891057

 Al 
  0.5026434  0.2531038  0.2567843

 Al 
  0.7505470  0.9959977  0.2306049

 Al 
  0.7544243  0.2586642  0.0117878

 Al 
  0.9886528  0.5250532  0.0136714

 Al 
  0.0215633  0.7409831  0.2505408

 Al 
  0.2395748  0.4924892  0.2606109

 Al 
  0.2735137  0.7354586  0.9899064

 Al 
  0.9923717  0.9999295  0.4799366

 Al 
  0.9981053  0.2467254  0.7488416

 Al 
  0.2530828  0.9923531  0.7295802

 Al 
  0.2504554  0.2398012  0.4940634

 Al 
  0.9833090  0.4926687  0.5091456

 Al 
  0.9739010  0.7674286  0.7392679

 Al 
  0.2390859  0.4879610  0.7423024

 Al 
  0.2511051  0.7362210  0.5045740

 Al 
  0.5250012  0.4874771  0.9887444

 Al 
  0.5018860  0.7557547  0.2480781

 Al 
  0.7483689  0.5126689  0.2608163

 Al 
  0.7471833  0.7505544  0.0112544

 Al 
  0.5010173  0.0107767  0.5041990

 Al 
  0.4885835  0.2497772  0.7630550

 Al 
  0.7335874  0.0092025  0.7486783

 Al 
  0.7490706  0.2510358  0.5136194

 Al 
  0.5077471  0.4989468  0.5117890

 Al 
  0.5085986  0.7490780  0.7383372

 Al 
  0.7515569  0.5149102  0.7685362

 Al 
  0.7493552  0.7462007  0.4978194

