32 
charge = 0 
 Al 
  0.0142889  0.0045196  0.0021967

 Al 
  0.9962700  0.2413185  0.2463356

 Al 
  0.2584328  0.9831914  0.2390352

 Al 
  0.2373608  0.2706487  0.0081234

 Al 
  0.5090800  0.9973442  0.9897839

 Al 
  0.5035728  0.2530036  0.2574873

 Al 
  0.7504245  0.9951834  0.2308005

 Al 
  0.7556816  0.2566531  0.0111504

 Al 
  0.9889523  0.5251856  0.0125155

 Al 
  0.0219952  0.7404559  0.2495990

 Al 
  0.2395079  0.4913135  0.2606393

 Al 
  0.2736238  0.7348399  0.9912022

 Al 
  0.9922219  0.0008205  0.4803178

 Al 
  0.9971660  0.2474729  0.7476808

 Al 
  0.2521187  0.9928556  0.7297213

 Al 
  0.2507475  0.2413532  0.4934422

 Al 
  0.9837223  0.4935857  0.5084290

 Al 
  0.9731065  0.7695448  0.7408334

 Al 
  0.2379202  0.4864487  0.7425424

 Al 
  0.2515197  0.7375390  0.5057485

 Al 
  0.5247389  0.4881083  0.9891057

 Al 
  0.5016249  0.7554465  0.2487736

 Al 
  0.7477414  0.5132159  0.2597050

 Al 
  0.7476858  0.7513242  0.0105750

 Al 
  0.5009665  0.0115588  0.5041706

 Al 
  0.4891775  0.2499356  0.7625031

 Al 
  0.7346555  0.0084922  0.7496696

 Al 
  0.7492872  0.2497698  0.5136714

 Al 
  0.5061655  0.4981226  0.5099166

 Al 
  0.5086122  0.7497092  0.7382011

 Al 
  0.7515321  0.5155735  0.7684236

 Al 
  0.7501002  0.7454668  0.4977006

