32 
charge = 0 
 Al 
  0.0124474  0.0042337  0.0040481

 Al 
  0.9981833  0.2400067  0.2438048

 Al 
  0.2586035  0.9898000  0.2377345

 Al 
  0.2354463  0.2692812  0.0061296

 Al 
  0.5113707  0.9990743  0.9879746

 Al 
  0.5009034  0.2532523  0.2552980

 Al 
  0.7507500  0.9976932  0.2305307

 Al 
  0.7520754  0.2623484  0.0129226

 Al 
  0.9883162  0.5244480  0.0156688

 Al 
  0.0204668  0.7422553  0.2524405

 Al 
  0.2399089  0.4947527  0.2605205

 Al 
  0.2731065  0.7366764  0.9874016

 Al 
  0.9927157  0.9981696  0.4794230

 Al 
  0.9998985  0.2451871  0.7511546

 Al 
  0.2547609  0.9913903  0.7295542

 Al 
  0.2497946  0.2368521  0.4952812

 Al 
  0.9827026  0.4909831  0.5104883

 Al 
  0.9758044  0.7632753  0.7363905

 Al 
  0.2413791  0.4910784  0.7419336

 Al 
  0.2502747  0.7337607  0.5022697

 Al 
  0.5249740  0.4865613  0.9884931

 Al 
  0.5023996  0.7561668  0.2468430

 Al 
  0.7495384  0.5114103  0.2628669

 Al 
  0.7462329  0.7492018  0.0124387

 Al 
  0.5012277  0.0090849  0.5040221

 Al 
  0.4874907  0.2494542  0.7638929

 Al 
  0.7318474  0.0105601  0.7467576

 Al 
  0.7485459  0.2534714  0.5133855

 Al 
  0.5107074  0.5004752  0.5153260

 Al 
  0.5084934  0.7478862  0.7387011

 Al 
  0.7517697  0.5133991  0.7683481

 Al 
  0.7478640  0.7478095  0.4979555

