32 
charge = 0 
 Al 
  0.0166106  0.0042090  0.9981734

 Al 
  0.9930771  0.2447329  0.2512363

 Al 
  0.2581110  0.9742612  0.2417653

 Al 
  0.2414076  0.2715856  0.0109982

 Al 
  0.5039800  0.9952799  0.9936476

 Al 
  0.5082570  0.2522066  0.2599673

 Al 
  0.7498329  0.9918779  0.2332248

 Al 
  0.7616814  0.2465658  0.0075652

 Al 
  0.9914249  0.5240644  0.0058339

 Al 
  0.0226895  0.7391676  0.2457329

 Al 
  0.2401181  0.4860440  0.2606666

 Al 
  0.2733070  0.7318994  0.9970831

 Al 
  0.9917554  0.0046062  0.4830602

 Al 
  0.9926365  0.2505854  0.7426662

 Al 
  0.2468987  0.9954520  0.7315814

 Al 
  0.2516955  0.2486350  0.4906391

 Al 
  0.9863881  0.4984308  0.5048203

 Al 
  0.9712452  0.7789020  0.7486313

 Al 
  0.2327348  0.4804997  0.7441637

 Al 
  0.2532622  0.7439384  0.5110205

 Al 
  0.5213133  0.4921600  0.9927009

 Al 
  0.5005421  0.7530964  0.2527004

 Al 
  0.7448146  0.5147072  0.2540456

 Al 
  0.7500903  0.7555047  0.0068388

 Al 
  0.5011942  0.0142245  0.5031570

 Al 
  0.4923036  0.2506250  0.7590540

 Al 
  0.7407802  0.0052361  0.7543080

 Al 
  0.7498069  0.2441055  0.5131949

 Al 
  0.4983602  0.4942008  0.5009084

 Al 
  0.5082261  0.7527486  0.7379424

 Al 
  0.7520779  0.5175412  0.7658804

 Al 
  0.7533798  0.7429026  0.4967910

