32 
charge = 0 
 Al 
  0.0162381  0.0043154  0.9989679

 Al 
  0.9936748  0.2439854  0.2502760

 Al 
  0.2581828  0.9756930  0.2411873

 Al 
  0.2405710  0.2715658  0.0105106

 Al 
  0.5050592  0.9955770  0.9928655

 Al 
  0.5073561  0.2524071  0.2596468

 Al 
  0.7499295  0.9924137  0.2325714

 Al 
  0.7605985  0.2484617  0.0083078

 Al 
  0.9908383  0.5245124  0.0072286

 Al 
  0.0227563  0.7392443  0.2463517

 Al 
  0.2398854  0.4869425  0.2606752

 Al 
  0.2734753  0.7324439  0.9960559

 Al 
  0.9918086  0.0039899  0.4824378

 Al 
  0.9934793  0.2500668  0.7435115

 Al 
  0.2479271  0.9949334  0.7310764

 Al 
  0.2515791  0.2473318  0.4911279

 Al 
  0.9858163  0.4974692  0.5055158

 Al 
  0.9713133  0.7773105  0.7471746

 Al 
  0.2336258  0.4814081  0.7437998

 Al 
  0.2529801  0.7427615  0.5100997

 Al 
  0.5222043  0.4913036  0.9918148

 Al 
  0.5007116  0.7536483  0.2518848

 Al 
  0.7453245  0.5145896  0.2551297

 Al 
  0.7496510  0.7546767  0.0075863

 Al 
  0.5010990  0.0138941  0.5034441

 Al 
  0.4916823  0.2504987  0.7597792

 Al 
  0.7395537  0.0058017  0.7534664

 Al 
  0.7497797  0.2450696  0.5133892

 Al 
  0.4998243  0.4949000  0.5025630

 Al 
  0.5083610  0.7521892  0.7379412

 Al 
  0.7519034  0.5173457  0.7666168

 Al 
  0.7528105  0.7432503  0.4969964

