32 
charge = 0 
 Al 
  0.0180709  0.0035889  0.9946599

 Al 
  0.9901700  0.2491634  0.2559811

 Al 
  0.2575949  0.9696748  0.2452280

 Al 
  0.2460695  0.2700720  0.0128546

 Al 
  0.4977687  0.9946525  0.9976907

 Al 
  0.5127370  0.2506571  0.2600045

 Al 
  0.7496696  0.9898916  0.2381132

 Al 
  0.7662678  0.2379016  0.0033414

 Al 
  0.9950374  0.5199223  0.9980261

 Al 
  0.0205262  0.7399931  0.2436934

 Al 
  0.2421167  0.4829699  0.2603361

 Al 
  0.2715819  0.7294466  0.0011621

 Al 
  0.9918568  0.0065244  0.4868212

 Al 
  0.9886342  0.2526261  0.7394894

 Al 
  0.2419026  0.9984370  0.7353275

 Al 
  0.2517140  0.2539379  0.4887567

 Al 
  0.9896342  0.5034503  0.5012239

 Al 
  0.9736263  0.7845070  0.7551198

 Al 
  0.2293785  0.4780617  0.7463282

 Al 
  0.2540790  0.7492240  0.5147876

 Al 
  0.5155289  0.4966474  0.9981709

 Al 
  0.5000829  0.7496126  0.2573598

 Al 
  0.7430659  0.5137951  0.2487959

 Al 
  0.7520036  0.7596233  0.0030642

 Al 
  0.5018217  0.0141602  0.5011794

 Al 
  0.4956277  0.2513712  0.7552794

 Al 
  0.7465744  0.0032090  0.7580714

 Al 
  0.7493627  0.2407566  0.5112321

 Al 
  0.4915276  0.4914695  0.4935115

 Al 
  0.5070529  0.7553030  0.7384102

 Al 
  0.7531743  0.5169831  0.7604091

 Al 
  0.7557398  0.7423667  0.4955708

