32 
charge = 0 
 Al 
  0.0179645  0.0036360  0.9949074

 Al 
  0.9904213  0.2487290  0.2555802

 Al 
  0.2576518  0.9698814  0.2448802

 Al 
  0.2456277  0.2703332  0.0127358

 Al 
  0.4983664  0.9946451  0.9973318

 Al 
  0.5123509  0.2508378  0.2601233

 Al 
  0.7496547  0.9900178  0.2375687

 Al 
  0.7659336  0.2385835  0.0037436

 Al 
  0.9946859  0.5204173  0.9987575

 Al 
  0.0208517  0.7398446  0.2437998

 Al 
  0.2418890  0.4831172  0.2603968

 Al 
  0.2717984  0.7296334  0.0008861

 Al 
  0.9918172  0.0064465  0.4864524

 Al 
  0.9889671  0.2524838  0.7396911

 Al 
  0.2423135  0.9981375  0.7349141

 Al 
  0.2517549  0.2535827  0.4888731

 Al 
  0.9893235  0.5029986  0.5015507

 Al 
  0.9732092  0.7842161  0.7546272

 Al 
  0.2295815  0.4781187  0.7461215

 Al 
  0.2540567  0.7488107  0.5145191

 Al 
  0.5161106  0.4962564  0.9976387

 Al 
  0.5000965  0.7499641  0.2569130

 Al 
  0.7431464  0.5139857  0.2492377

 Al 
  0.7518601  0.7592768  0.0033872

 Al 
  0.5017685  0.0142951  0.5013824

 Al 
  0.4953220  0.2512920  0.7556086

 Al 
  0.7461190  0.0033179  0.7577806

 Al 
  0.7494406  0.2409311  0.5114784

 Al 
  0.4920784  0.4916427  0.4940832

 Al 
  0.5071902  0.7550988  0.7383335

 Al 
  0.7530766  0.5171427  0.7610032

 Al 
  0.7555690  0.7423259  0.4956896

