32 
charge = 0 
 Al 
  0.0178556  0.0036867  0.9951710

 Al 
  0.9906725  0.2483033  0.2551755

 Al 
  0.2577075  0.9701265  0.2445423

 Al 
  0.2451921  0.2705671  0.0126070

 Al 
  0.4989543  0.9946500  0.9969754

 Al 
  0.5119623  0.2510086  0.2602173

 Al 
  0.7496473  0.9901540  0.2370477

 Al 
  0.7655846  0.2392839  0.0041409

 Al 
  0.9943394  0.5208876  0.9994827

 Al 
  0.0211499  0.7397097  0.2439186

 Al 
  0.2416700  0.4832917  0.2604500

 Al 
  0.2720026  0.7298277  0.0005940

 Al 
  0.9917851  0.0063499  0.4860898

 Al 
  0.9893037  0.2523353  0.7399077

 Al 
  0.2427318  0.9978479  0.7345169

 Al 
  0.2517883  0.2532028  0.4889993

 Al 
  0.9890179  0.5025494  0.5018737

 Al 
  0.9728343  0.7838820  0.7541174

 Al 
  0.2298042  0.4782078  0.7459173

 Al 
  0.2540246  0.7483862  0.5142382

 Al 
  0.5166786  0.4958616  0.9971152

 Al 
  0.5001139  0.7503069  0.2564737

 Al 
  0.7432441  0.5141540  0.2496844

 Al 
  0.7517115  0.7589253  0.0037127

 Al 
  0.5017128  0.0144040  0.5015816

 Al 
  0.4950200  0.2512165  0.7559391

 Al 
  0.7456500  0.0034404  0.7574798

 Al 
  0.7495124  0.2411292  0.5117111

 Al 
  0.4926402  0.4918296  0.4946723

 Al 
  0.5073214  0.7548908  0.7382630

 Al 
  0.7529763  0.5172813  0.7615762

 Al 
  0.7553896  0.7423024  0.4958059

