32 
charge = 0 
 Al 
  0.0173729  0.0039132  0.9963727

 Al 
  0.9916972  0.2466685  0.2534986

 Al 
  0.2579043  0.9715200  0.2432602

 Al 
  0.2434954  0.2712514  0.0120019

 Al 
  0.5012301  0.9947948  0.9955312

 Al 
  0.5103757  0.2516076  0.2603473

 Al 
  0.7496733  0.9907975  0.2351678

 Al 
  0.7640340  0.2422801  0.0056878

 Al 
  0.9929979  0.5225274  0.0023279

 Al 
  0.0220831  0.7393087  0.2445461

 Al 
  0.2408866  0.4842520  0.2605923

 Al 
  0.2726932  0.7306742  0.9992438

 Al 
  0.9917170  0.0057769  0.4846988

 Al 
  0.9907059  0.2516608  0.7409398

 Al 
  0.2444891  0.9967539  0.7330788

 Al 
  0.2518328  0.2514343  0.4896156

 Al 
  0.9878323  0.5007500  0.5031620

 Al 
  0.9717415  0.7821086  0.7518898

 Al 
  0.2308945  0.4788810  0.7451203

 Al 
  0.2537894  0.7465682  0.5129771

 Al 
  0.5188456  0.4942552  0.9950856

 Al 
  0.5002413  0.7516076  0.2547683

 Al 
  0.7437899  0.5146119  0.2515296

 Al 
  0.7510594  0.7574675  0.0050542

 Al 
  0.5014789  0.0145834  0.5023291

 Al 
  0.4938209  0.2509393  0.7572892

 Al 
  0.7436303  0.0040852  0.7561841

 Al 
  0.7497215  0.2421811  0.5124969

 Al 
  0.4950188  0.4927268  0.4972155

 Al 
  0.5077818  0.7540072  0.7380550

 Al 
  0.7525692  0.5176192  0.7636763

 Al 
  0.7545963  0.7423840  0.4962564

