32 
charge = 0 
 Al 
  0.0187862  0.0033959  0.9934397

 Al 
  0.9883607  0.2525271  0.2587112

 Al 
  0.2570925  0.9693307  0.2480088

 Al 
  0.2494394  0.2673469  0.0134746

 Al 
  0.4931860  0.9950411  0.0002822

 Al 
  0.5154658  0.2490570  0.2583832

 Al 
  0.7499616  0.9892307  0.2426687

 Al 
  0.7682615  0.2335107  0.0003366

 Al 
  0.9976462  0.5156440  0.9926056

 Al 
  0.0173890  0.7413878  0.2432788

 Al 
  0.2440114  0.4827174  0.2595899

 Al 
  0.2696079  0.7283389  0.0026917

 Al 
  0.9923482  0.0065776  0.4896589

 Al 
  0.9863707  0.2534776  0.7384214

 Al 
  0.2392369  0.0009009  0.7387629

 Al 
  0.2511485  0.2557262  0.4882753

 Al 
  0.9920326  0.5067670  0.4987810

 Al 
  0.9778810  0.7852557  0.7581234

 Al 
  0.2285295  0.4785271  0.7478281

 Al 
  0.2538934  0.7519343  0.5164051

 Al 
  0.5110613  0.4993787  0.0021459

 Al 
  0.5000990  0.7468801  0.2607643

 Al 
  0.7429979  0.5117865  0.2456970

 Al 
  0.7528848  0.7619561  0.0008514

 Al 
  0.5021113  0.0124561  0.4996040

 Al 
  0.4978825  0.2520680  0.7529825

 Al 
  0.7493924  0.0028390  0.7598658

 Al 
  0.7485842  0.2402381  0.5090070

 Al 
  0.4879053  0.4906453  0.4898891

 Al 
  0.5058698  0.7566519  0.7392097

 Al 
  0.7537783  0.5152369  0.7555888

 Al 
  0.7567831  0.7431711  0.4946673

