32 
charge = 0 
 Al 
  0.0189941  0.0034008  0.9932912

 Al 
  0.9878137  0.2536112  0.2594711

 Al 
  0.2569056  0.9695956  0.2489444

 Al 
  0.2505185  0.2662331  0.0135847

 Al 
  0.4917207  0.9952626  0.0010693

 Al 
  0.5162665  0.2484704  0.2576395

 Al 
  0.7501151  0.9891107  0.2442416

 Al 
  0.7687218  0.2323660  0.9994196

 Al 
  0.9984320  0.5141293  0.9909448

 Al 
  0.0161886  0.7419002  0.2432491

 Al 
  0.2446513  0.4829167  0.2592409

 Al 
  0.2688666  0.7281038  0.0030135

 Al 
  0.9925721  0.0064341  0.4905661

 Al 
  0.9857445  0.2536879  0.7382073

 Al 
  0.2385501  0.0017685  0.7399473

 Al 
  0.2508886  0.2559960  0.4882531

 Al 
  0.9928147  0.5077905  0.4980112

 Al 
  0.9795716  0.7850119  0.7588424

 Al 
  0.2284924  0.4789478  0.7482711

 Al 
  0.2537164  0.7526694  0.5167950

 Al 
  0.5096369  0.5001646  0.0033724

 Al 
  0.5001312  0.7460014  0.2618447

 Al 
  0.7431625  0.5109747  0.2447837

 Al 
  0.7530989  0.7625897  0.0002289

 Al 
  0.5021571  0.0117049  0.4991052

 Al 
  0.4985768  0.2523254  0.7523167

 Al 
  0.7500767  0.0028513  0.7602891

 Al 
  0.7482860  0.2403210  0.5081877

 Al 
  0.4869363  0.4905351  0.4889721

 Al 
  0.5054539  0.7570182  0.7395364

 Al 
  0.7539070  0.5145302  0.7539713

 Al 
  0.7570368  0.7435771  0.4943864

