32 
charge = 0 
 Al 
  0.0191005  0.0034157  0.9932590

 Al 
  0.9875353  0.2541731  0.2598473

 Al 
  0.2568029  0.9697911  0.2494369

 Al 
  0.2510792  0.2656143  0.0136293

 Al 
  0.4909608  0.9953926  0.0014727

 Al 
  0.5166687  0.2481536  0.2572187

 Al 
  0.7502042  0.9890637  0.2450745

 Al 
  0.7689322  0.2318140  0.9989555

 Al 
  0.9988280  0.5133199  0.9900995

 Al 
  0.0155351  0.7421749  0.2432479

 Al 
  0.2449854  0.4830664  0.2590404

 Al 
  0.2684607  0.7280036  0.0031570

 Al 
  0.9926996  0.0063351  0.4910351

 Al 
  0.9854376  0.2537882  0.7381144

 Al 
  0.2382234  0.0022338  0.7405747

 Al 
  0.2507388  0.2560863  0.4882642

 Al 
  0.9932243  0.5083164  0.4976127

 Al 
  0.9805010  0.7848064  0.7591778

 Al 
  0.2285134  0.4792077  0.7484914

 Al 
  0.2536050  0.7530333  0.5169769

 Al 
  0.5089005  0.5005569  0.0039973

 Al 
  0.5001497  0.7455473  0.2624029

 Al 
  0.7432788  0.5105279  0.2443196

 Al 
  0.7531991  0.7628979  0.9999196

 Al 
  0.5021732  0.0112841  0.4988478

 Al 
  0.4989307  0.2524652  0.7519826

 Al 
  0.7503960  0.0028749  0.7604809

 Al 
  0.7481226  0.2404027  0.5077459

 Al 
  0.4864648  0.4905017  0.4885352

 Al 
  0.5052324  0.7571977  0.7397196

 Al 
  0.7539602  0.5141429  0.7531211

 Al 
  0.7571556  0.7438097  0.4942429

