32 
charge = 0 
 Al 
  0.0196488  0.0036211  0.9935709

 Al 
  0.9861257  0.2571259  0.2616232

 Al 
  0.2561754  0.9713975  0.2521410

 Al 
  0.2540493  0.2619239  0.0137345

 Al 
  0.4869672  0.9961994  0.0035382

 Al 
  0.5186649  0.2463442  0.2546322

 Al 
  0.7507871  0.9889510  0.2496275

 Al 
  0.7697540  0.2293228  0.9966499

 Al 
  0.0007636  0.5088263  0.9858163

 Al 
  0.0117828  0.7437082  0.2433481

 Al 
  0.2467526  0.4843028  0.2577434

 Al 
  0.2660896  0.7277363  0.0036929

 Al 
  0.9934892  0.0055938  0.4935016

 Al 
  0.9840082  0.2542473  0.7377543

 Al 
  0.2368286  0.0048908  0.7440275

 Al 
  0.2498168  0.2560641  0.4885402

 Al 
  0.9954433  0.5110539  0.4955163

 Al 
  0.9859029  0.7829105  0.7605663

 Al 
  0.2290555  0.4809849  0.7495458

 Al 
  0.2528006  0.7547819  0.5177516

 Al 
  0.5050542  0.5024875  0.0071704

 Al 
  0.5002661  0.7431810  0.2653210

 Al 
  0.7442280  0.5079068  0.2419521

 Al 
  0.7536261  0.7643112  0.9984320

 Al 
  0.5021657  0.0087570  0.4975311

 Al 
  0.5007500  0.2532635  0.7503267

 Al 
  0.7517512  0.0031261  0.7611839

 Al 
  0.7471944  0.2412170  0.5052337

 Al 
  0.4842966  0.4905450  0.4866405

 Al 
  0.5040122  0.7580429  0.7408346

 Al 
  0.7540889  0.5119140  0.7485273

 Al 
  0.7576617  0.7452601  0.4935251

