32 
charge = 0 
 Al 
  0.0195386  0.0035629  0.9934409

 Al 
  0.9864054  0.2565244  0.2612866

 Al 
  0.2563165  0.9709952  0.2515729

 Al 
  0.2534392  0.2627358  0.0137283

 Al 
  0.4877828  0.9960200  0.0031236

 Al 
  0.5182738  0.2467328  0.2552089

 Al 
  0.7506522  0.9889560  0.2486758

 Al 
  0.7696240  0.2297782  0.9970992

 Al 
  0.0003898  0.5097767  0.9866677

 Al 
  0.0125885  0.7433840  0.2433147

 Al 
  0.2463925  0.4839921  0.2580404

 Al 
  0.2666069  0.7277548  0.0036100

 Al 
  0.9933122  0.0057732  0.4929991

 Al 
  0.9842743  0.2541619  0.7378137

 Al 
  0.2370687  0.0043191  0.7433023

 Al 
  0.2500235  0.2561334  0.4884548

 Al 
  0.9949804  0.5104982  0.4959457

 Al 
  0.9847334  0.7834043  0.7603299

 Al 
  0.2288859  0.4805703  0.7493466

 Al 
  0.2529937  0.7544441  0.5176179

 Al 
  0.5058351  0.5021113  0.0065393

 Al 
  0.5002413  0.7436587  0.2647282

 Al 
  0.7439904  0.5084761  0.2424274

 Al 
  0.7535518  0.7640513  0.9987179

 Al 
  0.5021793  0.0093139  0.4977947

 Al 
  0.5003849  0.2530914  0.7506522

 Al 
  0.7515160  0.0030630  0.7610836

 Al 
  0.7473925  0.2410017  0.5057720

 Al 
  0.4846988  0.4905091  0.4869747

 Al 
  0.5042684  0.7578833  0.7405859

 Al 
  0.7540840  0.5123917  0.7494815

 Al 
  0.7575739  0.7449359  0.4936662

