32 
charge = 0 
 Al 
  0.0200770  0.0039367  0.9944372

 Al 
  0.9850775  0.2594760  0.2628174

 Al 
  0.2555344  0.9733429  0.2544676

 Al 
  0.2564725  0.2584216  0.0136800

 Al 
  0.4837520  0.9969680  0.0051470

 Al 
  0.5201153  0.2447193  0.2521212

 Al 
  0.7514046  0.9890179  0.2534813

 Al 
  0.7700807  0.2277870  0.9950027

 Al 
  0.0021088  0.5049106  0.9825900

 Al 
  0.0084055  0.7450547  0.2435226

 Al 
  0.2481498  0.4858089  0.2564019

 Al 
  0.2638508  0.7278786  0.0039144

 Al 
  0.9942651  0.0047572  0.4954829

 Al 
  0.9831048  0.2545480  0.7375674

 Al 
  0.2361207  0.0073202  0.7469915

 Al 
  0.2489085  0.2554750  0.4890104

 Al 
  0.9973380  0.5132444  0.4938122

 Al 
  0.9908396  0.7804267  0.7612841

 Al 
  0.2300356  0.4828734  0.7502339

 Al 
  0.2518860  0.7560344  0.5181674

 Al 
  0.5019925  0.5038946  0.0095701

 Al 
  0.5003614  0.7413296  0.2676377

 Al 
  0.7453950  0.5054935  0.2401032

 Al 
  0.7538550  0.7651886  0.9973826

 Al 
  0.5020494  0.0063734  0.4965323

 Al 
  0.5021558  0.2539800  0.7490966

 Al 
  0.7524999  0.0034070  0.7613472

 Al 
  0.7463665  0.2423048  0.5029838

 Al 
  0.4829130  0.4908037  0.4855861

 Al 
  0.5029652  0.7586085  0.7419336

 Al 
  0.7539825  0.5099364  0.7446748

 Al 
  0.7579402  0.7466771  0.4930177

