32 
charge = 0 
 Al 
  0.0197589  0.0036892  0.9937355

 Al 
  0.9858509  0.2577249  0.2619474

 Al 
  0.2560269  0.9718356  0.2527164

 Al 
  0.2546607  0.2610811  0.0137320

 Al 
  0.4861517  0.9963863  0.0039515

 Al 
  0.5190461  0.2459470  0.2540320

 Al 
  0.7509306  0.9889548  0.2505903

 Al 
  0.7698654  0.2288934  0.9962118

 Al 
  0.0011249  0.5078598  0.9849785

 Al 
  0.0109561  0.7440399  0.2433852

 Al 
  0.2471115  0.4846418  0.2574291

 Al 
  0.2655512  0.7277387  0.0037647

 Al 
  0.9936736  0.0054007  0.4940040

 Al 
  0.9837570  0.2543278  0.7377011

 Al 
  0.2366120  0.0054799  0.7447626

 Al 
  0.2496003  0.2559613  0.4886392

 Al 
  0.9959123  0.5116096  0.4950856

 Al 
  0.9871071  0.7823610  0.7607804

 Al 
  0.2292547  0.4814267  0.7497352

 Al 
  0.2525915  0.7551111  0.5178754

 Al 
  0.5042745  0.5028563  0.0077942

 Al 
  0.5002908  0.7427046  0.2659113

 Al 
  0.7444891  0.5073202  0.2414806

 Al 
  0.7536941  0.7645562  0.9981536

 Al 
  0.5021459  0.0081815  0.4972712

 Al 
  0.5011113  0.2534392  0.7500062

 Al 
  0.7519677  0.0031954  0.7612618

 Al 
  0.7469902  0.2414571  0.5046829

 Al 
  0.4839154  0.4905933  0.4863324

 Al 
  0.5037523  0.7581951  0.7410945

 Al 
  0.7540802  0.5114264  0.7475645

 Al 
  0.7577434  0.7455992  0.4933889

