32 
charge = 0 
 Al 
  0.0193184  0.0034701  0.9932837

 Al 
  0.9869709  0.2553327  0.2605824

 Al 
  0.2565752  0.9703096  0.2504752

 Al 
  0.2522388  0.2642542  0.0136936

 Al 
  0.4893953  0.9956859  0.0022920

 Al 
  0.5174756  0.2474717  0.2562769

 Al 
  0.7504109  0.9889931  0.2468269

 Al 
  0.7693097  0.2307584  0.9980211

 Al 
  0.9996176  0.5116059  0.9883867

 Al 
  0.0141243  0.7427590  0.2432677

 Al 
  0.2456784  0.4834637  0.2585788

 Al 
  0.2675796  0.7278464  0.0034070

 Al 
  0.9929855  0.0060863  0.4920029

 Al 
  0.9848399  0.2539812  0.7379499

 Al 
  0.2376120  0.0032338  0.7418989

 Al 
  0.2504047  0.2561742  0.4883298

 Al 
  0.9940807  0.5093943  0.4967922

 Al 
  0.9825194  0.7842223  0.7597928

 Al 
  0.2286397  0.4798265  0.7489270

 Al 
  0.2533328  0.7537486  0.5173160

 Al 
  0.5073870  0.5013403  0.0052658

 Al 
  0.5001931  0.7446129  0.2635513

 Al 
  0.7435857  0.5095515  0.2433778

 Al 
  0.7533860  0.7634944  0.9993107

 Al 
  0.5021880  0.0103534  0.4983243

 Al 
  0.4996535  0.2527647  0.7513143

 Al 
  0.7509900  0.0029516  0.7608188

 Al 
  0.7477724  0.2406490  0.5067979

 Al 
  0.4855539  0.4904770  0.4877147

 Al 
  0.5047646  0.7575479  0.7401267

 Al 
  0.7540431  0.5133038  0.7513440

 Al 
  0.7573771  0.7443357  0.4939533

