32 
charge = 0 
 Al 
  0.0202700  0.0041297  0.9950646

 Al 
  0.9846245  0.2605638  0.2633001

 Al 
  0.2551718  0.9744716  0.2556247

 Al 
  0.2576246  0.2565937  0.0136119

 Al 
  0.4822385  0.9973541  0.0058883

 Al 
  0.5207403  0.2438988  0.2507970

 Al 
  0.7517524  0.9891020  0.2553525

 Al 
  0.7701203  0.2272189  0.9943134

 Al 
  0.0026570  0.5029565  0.9811532

 Al 
  0.0067002  0.7457329  0.2436278

 Al 
  0.2487847  0.4866801  0.2556668

 Al 
  0.2626726  0.7280852  0.0039627

 Al 
  0.9946797  0.0042906  0.4964173

 Al 
  0.9827731  0.2546730  0.7374957

 Al 
  0.2359376  0.0085763  0.7484518

 Al 
  0.2484258  0.2550171  0.4893087

 Al 
  0.9982798  0.5142778  0.4930016

 Al 
  0.9933518  0.7789416  0.7615007

 Al 
  0.2306928  0.4839092  0.7504925

 Al 
  0.2513638  0.7565838  0.5182949

 Al 
  0.5005619  0.5045109  0.0106406

 Al 
  0.5003997  0.7404869  0.2687119

 Al 
  0.7460782  0.5042585  0.2392419

 Al 
  0.7539268  0.7655116  0.9969333

 Al 
  0.5019566  0.0051421  0.4960905

 Al 
  0.5027981  0.2543401  0.7485471

 Al 
  0.7527573  0.0035370  0.7612742

 Al 
  0.7459495  0.2429570  0.5018464

 Al 
  0.4823796  0.4909856  0.4852495

 Al 
  0.5024467  0.7588387  0.7425264

 Al 
  0.7538550  0.5089562  0.7428011

 Al 
  0.7580293  0.7474209  0.4928122

