32 
charge = 0 
 Al 
  0.0205794  0.0045505  0.9966338

 Al 
  0.9839327  0.2624462  0.2639906

 Al 
  0.2543847  0.9768959  0.2578177

 Al 
  0.2596963  0.2530023  0.0134139

 Al 
  0.4795555  0.9980471  0.0071766

 Al 
  0.5217254  0.2423358  0.2481709

 Al 
  0.7524937  0.9893545  0.2587768

 Al 
  0.7699594  0.2265061  0.9932800

 Al 
  0.0034503  0.4992364  0.9787721

 Al 
  0.0034454  0.7470422  0.2438456

 Al 
  0.2498465  0.4885303  0.2541570

 Al 
  0.2603002  0.7287659  0.0039664

 Al 
  0.9955114  0.0033229  0.4980892

 Al 
  0.9823858  0.2548673  0.7373682

 Al 
  0.2359302  0.0110551  0.7511744

 Al 
  0.2474618  0.2538637  0.4899807

 Al 
  0.0000767  0.5161279  0.4915400

 Al 
  0.9981808  0.7756868  0.7616764

 Al 
  0.2322818  0.4860329  0.7507995

 Al 
  0.2502549  0.7574996  0.5183840

 Al 
  0.4980335  0.5055294  0.0124189

 Al 
  0.5004492  0.7390637  0.2705782

 Al 
  0.7475533  0.5018712  0.2377160

 Al 
  0.7539812  0.7659076  0.9962118

 Al 
  0.5017128  0.0027499  0.4953814

 Al 
  0.5039020  0.2550158  0.7476140

 Al 
  0.7530568  0.0037201  0.7608212

 Al 
  0.7451500  0.2443901  0.4996634

 Al 
  0.4816568  0.4913940  0.4849723

 Al 
  0.5014690  0.7591765  0.7437454

 Al 
  0.7534664  0.5071308  0.7393248

 Al 
  0.7581135  0.7488800  0.4925387

