32 
charge = 0 
 Al 
  0.0207787  0.0050728  0.9990223

 Al 
  0.9835367  0.2641491  0.2643508

 Al 
  0.2533080  0.9800356  0.2602483

 Al 
  0.2617358  0.2489246  0.0130946

 Al 
  0.4769925  0.9986436  0.0083832

 Al 
  0.5224259  0.2406329  0.2451215

 Al 
  0.7534540  0.9898149  0.2622667

 Al 
  0.7693592  0.2263514  0.9926551

 Al 
  0.0038649  0.4950955  0.9767932

 Al 
  0.9998688  0.7485409  0.2440968

 Al 
  0.2507128  0.4908519  0.2523180

 Al 
  0.2574291  0.7300728  0.0038637

 Al 
  0.9965088  0.0021397  0.4997748

 Al 
  0.9824204  0.2550109  0.7371912

 Al 
  0.2365366  0.0139461  0.7540642

 Al 
  0.2463405  0.2521583  0.4908742

 Al 
  0.0020940  0.5179657  0.4900735

 Al 
  0.0035530  0.7713913  0.7615044

 Al 
  0.2346654  0.4886206  0.7507896

 Al 
  0.2488466  0.7583115  0.5182070

 Al 
  0.4955869  0.5063908  0.0138978

 Al 
  0.5004492  0.7378521  0.2722823

 Al 
  0.7494468  0.4992018  0.2362173

 Al 
  0.7539033  0.7659658  0.9956326

 Al 
  0.5013267  0.0000730  0.4948666

 Al 
  0.5049156  0.2557336  0.7467613

 Al 
  0.7531088  0.0037412  0.7597421

 Al 
  0.7442528  0.2462985  0.4972340

 Al 
  0.4813598  0.4918878  0.4853027

 Al 
  0.5003935  0.7593795  0.7452676

 Al 
  0.7527721  0.5052225  0.7356158

 Al 
  0.7580541  0.7505210  0.4924880

