32 
charge = 0 
 Al 
  0.0205485  0.0057794  0.0035790

 Al 
  0.9840998  0.2654299  0.2639226

 Al 
  0.2513341  0.9852173  0.2635624

 Al 
  0.2637555  0.2436154  0.0125204

 Al 
  0.4746918  0.9986857  0.0095305

 Al 
  0.5224209  0.2385068  0.2408767

 Al 
  0.7550183  0.9909287  0.2661044

 Al 
  0.7675833  0.2274603  0.9929335

 Al 
  0.0034404  0.4894003  0.9756448

 Al 
  0.9952267  0.7506819  0.2443901

 Al 
  0.2510655  0.4943976  0.2495780

 Al 
  0.2529677  0.7331630  0.0036446

 Al 
  0.9980100  0.0003799  0.5018044

 Al 
  0.9835565  0.2550196  0.7367172

 Al 
  0.2386899  0.0180721  0.7575677

 Al 
  0.2447899  0.2491461  0.4923222

 Al 
  0.0049144  0.5199235  0.4884709

 Al 
  0.0106554  0.7643149  0.7606393

 Al 
  0.2393347  0.4925239  0.7499901

 Al 
  0.2466623  0.7590330  0.5173085

 Al 
  0.4930845  0.5070108  0.0147072

 Al 
  0.5003193  0.7371355  0.2736201

 Al 
  0.7523897  0.4957094  0.2345923

 Al 
  0.7534788  0.7652356  0.9952589

 Al 
  0.5005680  0.9965979  0.4949000

 Al 
  0.5058289  0.2565690  0.7459606

 Al 
  0.7527189  0.0032139  0.7569848

 Al 
  0.7430090  0.2495050  0.4939817

 Al 
  0.4819935  0.4924509  0.4871182

 Al 
  0.4989419  0.7592718  0.7477538

 Al 
  0.7512648  0.5030060  0.7308673

 Al 
  0.7576333  0.7526137  0.4931464

