32 
charge = 0 
 Al 
  0.0206784  0.0056210  0.0023526

 Al 
  0.9838127  0.2652666  0.2641354

 Al 
  0.2518662  0.9838832  0.2627754

 Al 
  0.2633830  0.2448084  0.0126689

 Al 
  0.4750705  0.9987983  0.0093176

 Al 
  0.5225459  0.2389795  0.2418779

 Al 
  0.7546223  0.9905970  0.2653210

 Al 
  0.7681241  0.2270457  0.9927392

 Al 
  0.0036533  0.4907579  0.9757264

 Al 
  0.9962898  0.7501646  0.2443307

 Al 
  0.2510891  0.4935238  0.2502463

 Al 
  0.2540939  0.7322682  0.0036941

 Al 
  0.9976387  0.0008081  0.5013440

 Al 
  0.9831518  0.2550431  0.7368682

 Al 
  0.2380241  0.0170821  0.7567992

 Al 
  0.2451537  0.2499257  0.4919558

 Al 
  0.0042362  0.5195324  0.4888001

 Al 
  0.0090144  0.7661217  0.7609091

 Al 
  0.2380538  0.4915611  0.7502710

 Al 
  0.2472019  0.7589043  0.5176068

 Al 
  0.4935746  0.5069279  0.0146701

 Al 
  0.5003651  0.7371863  0.2734345

 Al 
  0.7516633  0.4965064  0.2349290

 Al 
  0.7536186  0.7655042  0.9953022

 Al 
  0.5007735  0.9973850  0.4947948

 Al 
  0.5056680  0.2563932  0.7461091

 Al 
  0.7528575  0.0034132  0.7577917

 Al 
  0.7433048  0.2486783  0.4947428

 Al 
  0.4817249  0.4923420  0.4865279

 Al 
  0.4992847  0.7593448  0.7471115

 Al 
  0.7516868  0.5034776  0.7319563

 Al 
  0.7577756  0.7521472  0.4928902

