32 
charge = 0 
 Al 
  0.0207230  0.0055369  0.0017623

 Al 
  0.9837063  0.2651453  0.2642159

 Al 
  0.2521212  0.9832298  0.2623756

 Al 
  0.2631652  0.2454371  0.0127419

 Al 
  0.4753082  0.9988218  0.0091939

 Al 
  0.5225781  0.2392295  0.2423915

 Al 
  0.7544255  0.9904460  0.2648879

 Al 
  0.7683691  0.2268712  0.9926699

 Al 
  0.0037350  0.4914484  0.9758156

 Al 
  0.9968430  0.7499022  0.2442973

 Al 
  0.2510730  0.4930845  0.2505841

 Al 
  0.2546495  0.7318524  0.0037214

 Al 
  0.9974531  0.0010247  0.5011051

 Al 
  0.9829798  0.2550480  0.7369338

 Al 
  0.2377234  0.0165796  0.7563908

 Al 
  0.2453406  0.2503082  0.4917752

 Al 
  0.0038934  0.5193134  0.4889807

 Al 
  0.0081654  0.7670115  0.7610316

 Al 
  0.2374449  0.4910796  0.7503923

 Al 
  0.2474717  0.7588288  0.5177367

 Al 
  0.4938506  0.5068697  0.0146107

 Al 
  0.5003849  0.7372420  0.2733058

 Al 
  0.7512994  0.4969222  0.2351121

 Al 
  0.7536805  0.7656180  0.9953356

 Al 
  0.5008725  0.9977984  0.4947676

 Al 
  0.5055727  0.2562980  0.7461945

 Al 
  0.7529169  0.0034949  0.7581654

 Al 
  0.7434558  0.2482724  0.4951327

 Al 
  0.4816160  0.4922788  0.4862668

 Al 
  0.4994604  0.7593708  0.7467972

 Al 
  0.7518860  0.5037325  0.7325207

 Al 
  0.7578375  0.7519009  0.4927862

