32 
charge = 0 
 Al 
  0.0194013  0.0062992  0.0092372

 Al 
  0.9864512  0.2650178  0.2623496

 Al 
  0.2488293  0.9911749  0.2666502

 Al 
  0.2643929  0.2396701  0.0119153

 Al 
  0.4745161  0.9971821  0.0100304

 Al 
  0.5210175  0.2369041  0.2370922

 Al 
  0.7566766  0.9927776  0.2682491

 Al 
  0.7646181  0.2299948  0.9943938

 Al 
  0.0019999  0.4839921  0.9765927

 Al 
  0.9913519  0.7527449  0.2445473

 Al 
  0.2502166  0.4980013  0.2468900

 Al 
  0.2480805  0.7377766  0.0035803

 Al 
  0.9995780  0.9986622  0.5036137

 Al 
  0.9860465  0.2547139  0.7358014

 Al 
  0.2422454  0.0219049  0.7600997

 Al 
  0.2434570  0.2458096  0.4939062

 Al 
  0.0076494  0.5208962  0.4875377

 Al 
  0.0166972  0.7564972  0.7592384

 Al 
  0.2455522  0.4965026  0.7483565

 Al 
  0.2445312  0.7592990  0.5154893

 Al 
  0.4918259  0.5069452  0.0137716

 Al 
  0.5000421  0.7377741  0.2733689

 Al 
  0.7553005  0.4929051  0.2335676

 Al 
  0.7526533  0.7635600  0.9953307

 Al 
  0.4995904  0.9938617  0.4960101

 Al 
  0.5061098  0.2570368  0.7456463

 Al 
  0.7519640  0.0019355  0.7528588

 Al 
  0.7418853  0.2531335  0.4910759

 Al 
  0.4837595  0.4926835  0.4904138

 Al 
  0.4975719  0.7586506  0.7506633

 Al 
  0.7492117  0.5015333  0.7268143

 Al 
  0.7567781  0.7541570  0.4949050

