32 
charge = 0 
 Al 
  0.0196104  0.0062435  0.0084550

 Al 
  0.9860378  0.2651688  0.2626120

 Al 
  0.2491807  0.9903582  0.2662616

 Al 
  0.2643904  0.2400896  0.0119920

 Al 
  0.4744134  0.9974754  0.0099933

 Al 
  0.5212811  0.2370823  0.2375514

 Al 
  0.7564626  0.9924917  0.2680647

 Al 
  0.7650686  0.2296013  0.9941575

 Al 
  0.0022276  0.4846815  0.9763613

 Al 
  0.9918123  0.7524850  0.2445337

 Al 
  0.2503911  0.4975323  0.2472328

 Al 
  0.2487389  0.7370972  0.0035704

 Al 
  0.9993713  0.9988812  0.5033785

 Al 
  0.9856529  0.2547733  0.7359487

 Al 
  0.2417182  0.0214333  0.7598262

 Al 
  0.2436142  0.2462477  0.4936921

 Al 
  0.0072979  0.5208282  0.4876231

 Al 
  0.0159769  0.7575429  0.7594426

 Al 
  0.2446624  0.4959853  0.7486040

 Al 
  0.2447948  0.7592854  0.5157814

 Al 
  0.4919261  0.5069860  0.0139882

 Al 
  0.5000854  0.7376194  0.2734926

 Al 
  0.7549329  0.4932243  0.2336728

 Al 
  0.7527820  0.7638260  0.9953022

 Al 
  0.4997290  0.9941698  0.4958059

 Al 
  0.5061037  0.2570009  0.7456611

 Al 
  0.7520742  0.0021397  0.7534602

 Al 
  0.7420202  0.2526459  0.4914361

 Al 
  0.4834785  0.4926699  0.4899176

 Al 
  0.4977489  0.7587595  0.7502611

 Al 
  0.7495025  0.5016856  0.7273056

 Al 
  0.7569130  0.7539911  0.4946141

