32 
charge = 0 
 Al 
  0.0199656  0.0061247  0.0069588

 Al 
  0.9853200  0.2653829  0.2630786

 Al 
  0.2498490  0.9887939  0.2654893

 Al 
  0.2643161  0.2409943  0.0121442

 Al 
  0.4743193  0.9979654  0.0099005

 Al 
  0.5217279  0.2374561  0.2384795

 Al 
  0.7560405  0.9919707  0.2676229

 Al 
  0.7658977  0.2288798  0.9937293

 Al 
  0.0026434  0.4860415  0.9759975

 Al 
  0.9927504  0.7519665  0.2445015

 Al 
  0.2506794  0.4966140  0.2479098

 Al 
  0.2500099  0.7358324  0.0035704

 Al 
  0.9989679  0.9993144  0.5029206

 Al 
  0.9849389  0.2548710  0.7362123

 Al 
  0.2407368  0.0204841  0.7592434

 Al 
  0.2439359  0.2471053  0.4932813

 Al 
  0.0066049  0.5206438  0.4878199

 Al 
  0.0145092  0.7595676  0.7598250

 Al 
  0.2429867  0.4949718  0.7490632

 Al 
  0.2453257  0.7592409  0.5163049

 Al 
  0.4921749  0.5070405  0.0143334

 Al 
  0.5001646  0.7373744  0.2736572

 Al 
  0.7542028  0.4938902  0.2339005

 Al 
  0.7530172  0.7643062  0.9952614

 Al 
  0.4999901  0.9948146  0.4954569

 Al 
  0.5060678  0.2569081  0.7457131

 Al 
  0.7522821  0.0025085  0.7545864

 Al 
  0.7422974  0.2517004  0.4921551

 Al 
  0.4829687  0.4926316  0.4889968

 Al 
  0.4980954  0.7589501  0.7494926

 Al 
  0.7500545  0.5020160  0.7282969

 Al 
  0.7571581  0.7536360  0.4940956

