32 
charge = 0 
 Al 
  0.0189211  0.0064007  0.0108658

 Al 
  0.9873942  0.2646193  0.2617655

 Al 
  0.2480904  0.9928803  0.2674298

 Al 
  0.2643260  0.2389015  0.0117643

 Al 
  0.4748391  0.9964927  0.0100861

 Al 
  0.5204049  0.2365687  0.2361900

 Al 
  0.7571061  0.9934063  0.2685449

 Al 
  0.7636367  0.2308450  0.9949025

 Al 
  0.0015123  0.4825974  0.9771521

 Al 
  0.9904485  0.7532672  0.2445696

 Al 
  0.2498069  0.4989617  0.2461994

 Al 
  0.2467143  0.7392320  0.0036199

 Al 
  0.0000037  0.9982191  0.5041050

 Al 
  0.9869078  0.2545777  0.7354772

 Al 
  0.2433741  0.0228355  0.7606096

 Al 
  0.2431563  0.2449210  0.4943518

 Al 
  0.0083634  0.5209829  0.4873954

 Al 
  0.0181080  0.7543414  0.7588053

 Al 
  0.2474382  0.4975571  0.7478256

 Al 
  0.2440114  0.7593127  0.5148408

 Al 
  0.4916687  0.5068375  0.0132469

 Al 
  0.4999468  0.7381541  0.2730335

 Al 
  0.7560356  0.4922937  0.2333758

 Al 
  0.7523687  0.7629783  0.9954037

 Al 
  0.4992983  0.9932776  0.4964791

 Al 
  0.5060987  0.2570863  0.7456364

 Al 
  0.7517326  0.0014900  0.7515816

 Al 
  0.7416192  0.2541421  0.4903557

 Al 
  0.4843733  0.4926984  0.4914806

 Al 
  0.4972093  0.7584006  0.7515086

 Al 
  0.7485991  0.5012561  0.7258415

 Al 
  0.7564824  0.7544664  0.4955572

