32 
charge = 0 
 Al 
  0.0186451  0.0064489  0.0117098

 Al 
  0.9879263  0.2643718  0.2614437

 Al 
  0.2477043  0.9937689  0.2678197

 Al 
  0.2642567  0.2385550  0.0116888

 Al 
  0.4750619  0.9960943  0.0101072

 Al 
  0.5200547  0.2364116  0.2357470

 Al 
  0.7573202  0.9937478  0.2686563

 Al 
  0.7631058  0.2313017  0.9951735

 Al 
  0.0012524  0.4818920  0.9774813

 Al 
  0.9900067  0.7535295  0.2445795

 Al 
  0.2495730  0.4994518  0.2458517

 Al 
  0.2460089  0.7400067  0.0036520

 Al 
  0.0002215  0.9979939  0.5043612

 Al 
  0.9873756  0.2545010  0.7352978

 Al 
  0.2439731  0.0232934  0.7608448

 Al 
  0.2430140  0.2444718  0.4945844

 Al 
  0.0087273  0.5209977  0.4873397

 Al 
  0.0187973  0.7532313  0.7585763

 Al 
  0.2484357  0.4980942  0.7475447

 Al 
  0.2437565  0.7593127  0.5144832

 Al 
  0.4916130  0.5067707  0.0129387

 Al 
  0.4998960  0.7383781  0.2728207

 Al 
  0.7564031  0.4920041  0.2332892

 Al 
  0.7522140  0.7626615  0.9954470

 Al 
  0.4991448  0.9930028  0.4967440

 Al 
  0.5060814  0.2570987  0.7456438

 Al 
  0.7516125  0.0012499  0.7509059

 Al 
  0.7414905  0.2546607  0.4899955

 Al 
  0.4847050  0.4927009  0.4920474

 Al 
  0.4970237  0.7582607  0.7519492

 Al 
  0.7482798  0.5011299  0.7253614

 Al 
  0.7563202  0.7546087  0.4959173

