32 
charge = 0 
 Al 
  0.0173085  0.0066148  0.0152468

 Al 
  0.9904497  0.2630600  0.2599698

 Al 
  0.2460745  0.9975286  0.2693530

 Al 
  0.2637308  0.2374561  0.0114029

 Al 
  0.4763687  0.9941575  0.0101480

 Al 
  0.5183469  0.2358646  0.2340664

 Al 
  0.7581568  0.9953059  0.2688369

 Al 
  0.7607334  0.2332979  0.9963319

 Al 
  0.0001411  0.4790468  0.9791013

 Al 
  0.9883273  0.7545567  0.2446141

 Al 
  0.2484518  0.5014690  0.2444570

 Al 
  0.2430548  0.7434013  0.0038723

 Al 
  0.0011175  0.9970806  0.5054663

 Al 
  0.9894733  0.2541322  0.7344847

 Al 
  0.2465732  0.0250285  0.7616405

 Al 
  0.2425090  0.2426885  0.4955819

 Al 
  0.0101938  0.5208616  0.4872234

 Al 
  0.0213925  0.7486226  0.7575875

 Al 
  0.2527363  0.5002686  0.7463356

 Al 
  0.2428048  0.7592718  0.5128224

 Al 
  0.4915413  0.5064229  0.0114079

 Al 
  0.4996621  0.7394943  0.2716672

 Al 
  0.7578437  0.4909732  0.2329996

 Al 
  0.7515185  0.7612309  0.9956722

 Al 
  0.4984865  0.9920400  0.4980026

 Al 
  0.5059378  0.2570516  0.7457428

 Al 
  0.7511076  0.0001869  0.7479902

 Al 
  0.7410178  0.2567992  0.4885674

 Al 
  0.4861715  0.4926947  0.4944953

 Al 
  0.4962440  0.7575974  0.7538278

 Al 
  0.7469420  0.5007141  0.7235063

 Al 
  0.7555814  0.7550827  0.4975756

