32 
charge = 0 
 Al 
  0.0169162  0.0066519  0.0161539

 Al 
  0.9911725  0.2626553  0.2595589

 Al 
  0.2456549  0.9985050  0.2697193

 Al 
  0.2635365  0.2372618  0.0113361

 Al 
  0.4767982  0.9935919  0.0101517

 Al 
  0.5178469  0.2357519  0.2336790

 Al 
  0.7583535  0.9957378  0.2688159

 Al 
  0.7600837  0.2338288  0.9966314

 Al 
  0.9998527  0.4783414  0.9795753

 Al 
  0.9879350  0.7548030  0.2446228

 Al 
  0.2481325  0.5019801  0.2441129

 Al 
  0.2422962  0.7443097  0.0039528

 Al 
  0.0013428  0.9968504  0.5057633

 Al 
  0.9900463  0.2540270  0.7342594

 Al 
  0.2472613  0.0254257  0.7617977

 Al 
  0.2424063  0.2422590  0.4958480

 Al 
  0.0105576  0.5207737  0.4872234

 Al 
  0.0219878  0.7474469  0.7573251

 Al 
  0.2538736  0.5008094  0.7460200

 Al 
  0.2425932  0.7592533  0.5123521

 Al 
  0.4915598  0.5063178  0.0109561

 Al 
  0.4995978  0.7398235  0.2713046

 Al 
  0.7581877  0.4907554  0.2329439

 Al 
  0.7513279  0.7608361  0.9957403

 Al 
  0.4983132  0.9918395  0.4983639

 Al 
  0.5058858  0.2570133  0.7457861

 Al 
  0.7509789  0.9999022  0.7472204

 Al 
  0.7409138  0.2573387  0.4882196

 Al 
  0.4865675  0.4926922  0.4951364

 Al 
  0.4960435  0.7574080  0.7543179

 Al 
  0.7466017  0.5006336  0.7230694

 Al 
  0.7553747  0.7551755  0.4980385

