32 
charge = 0 
 Al 
  0.0156156  0.0067509  0.0188481

 Al 
  0.9935152  0.2612878  0.2582558

 Al 
  0.2444000  0.0014479  0.2707440

 Al 
  0.2628199  0.2368893  0.0111542

 Al 
  0.4783080  0.9917479  0.0101554

 Al 
  0.5161910  0.2354859  0.2326333

 Al 
  0.7588882  0.9971140  0.2685969

 Al 
  0.7580417  0.2354487  0.9975137

 Al 
  0.9989939  0.4762945  0.9811185

 Al 
  0.9868571  0.7554935  0.2446500

 Al 
  0.2471152  0.5035023  0.2431142

 Al 
  0.2400265  0.7471177  0.0042634

 Al 
  0.0020011  0.9961697  0.5066977

 Al 
  0.9918333  0.2536941  0.7335528

 Al 
  0.2493676  0.0264826  0.7621615

 Al 
  0.2421761  0.2410611  0.4966759

 Al 
  0.0116096  0.5203740  0.4873026

 Al 
  0.0235879  0.7439409  0.7565232

 Al 
  0.2573449  0.5023736  0.7450745

 Al 
  0.2420474  0.7591802  0.5108299

 Al 
  0.4916984  0.5059688  0.0094773

 Al 
  0.4993961  0.7409052  0.2700634

 Al 
  0.7591555  0.4902134  0.2328164

 Al 
  0.7507326  0.7595862  0.9959668

 Al 
  0.4977897  0.9913569  0.4995396

 Al 
  0.5056990  0.2568264  0.7459544

 Al 
  0.7505953  0.9990372  0.7448728

 Al 
  0.7406502  0.2589216  0.4872197

 Al 
  0.4877890  0.4926947  0.4970546

 Al 
  0.4954359  0.7568004  0.7557967

 Al 
  0.7456042  0.5004517  0.7218628

 Al 
  0.7547151  0.7553822  0.4995087

