32 
charge = 0 
 Al 
  0.0160685  0.0067187  0.0179595

 Al 
  0.9927095  0.2617667  0.2587001

 Al 
  0.2448146  0.0004703  0.2704185

 Al 
  0.2630798  0.2369771  0.0112111

 Al 
  0.4777697  0.9923840  0.0101542

 Al 
  0.5167665  0.2355626  0.2329600

 Al 
  0.7587211  0.9966437  0.2686946

 Al 
  0.7587347  0.2349079  0.9972241

 Al 
  0.9992773  0.4769615  0.9805876

 Al 
  0.9871987  0.7552733  0.2446401

 Al 
  0.2474618  0.5029986  0.2434397

 Al 
  0.2407777  0.7461735  0.0041483

 Al 
  0.0017858  0.9963937  0.5063796

 Al 
  0.9912294  0.2538080  0.7337916

 Al 
  0.2486634  0.0261559  0.7620600

 Al 
  0.2422380  0.2414423  0.4963950

 Al 
  0.0112680  0.5205299  0.4872630

 Al 
  0.0230892  0.7450993  0.7567930

 Al 
  0.2561841  0.5018650  0.7453876

 Al 
  0.2422120  0.7592062  0.5113546

 Al 
  0.4916390  0.5060900  0.0099884

 Al 
  0.4994641  0.7405314  0.2705015

 Al 
  0.7588461  0.4903742  0.2328523

 Al 
  0.7509344  0.7600119  0.9958876

 Al 
  0.4979642  0.9914979  0.4991349

 Al 
  0.5057658  0.2569006  0.7458925

 Al 
  0.7507215  0.9993255  0.7456574

 Al 
  0.7407294  0.2584030  0.4875439

 Al 
  0.4873781  0.4926910  0.4964197

 Al 
  0.4956376  0.7570083  0.7553042

 Al 
  0.7459297  0.5005025  0.7222452

 Al 
  0.7549416  0.7553252  0.4990087

