32 
charge = 0 
 Al 
  0.0165029  0.0066866  0.0170586

 Al 
  0.9919274  0.2622234  0.2591357

 Al 
  0.2452329  0.9994876  0.2700757

 Al 
  0.2633199  0.2371021  0.0112730

 Al 
  0.4772660  0.9930003  0.0101530

 Al 
  0.5173184  0.2356517  0.2333102

 Al 
  0.7585417  0.9961846  0.2687689

 Al 
  0.7594166  0.2343659  0.9969296

 Al 
  0.9995644  0.4776459  0.9800715

 Al 
  0.9875588  0.7550418  0.2446315

 Al 
  0.2478021  0.5024912  0.2437738

 Al 
  0.2415351  0.7452354  0.0040456

 Al 
  0.0015668  0.9966215  0.5060678

 Al 
  0.9906329  0.2539194  0.7340280

 Al 
  0.2479593  0.0258019  0.7619388

 Al 
  0.2423160  0.2418420  0.4961190

 Al 
  0.0109165  0.5206623  0.4872370

 Al 
  0.0225546  0.7462700  0.7570603

 Al 
  0.2550245  0.5013428  0.7457032

 Al 
  0.2423939  0.7592310  0.5118620

 Al 
  0.4915920  0.5062076  0.0104822

 Al 
  0.4995322  0.7401700  0.2709160

 Al 
  0.7585231  0.4905549  0.2328944

 Al 
  0.7511336  0.7604302  0.9958121

 Al 
  0.4981387  0.9916588  0.4987426

 Al 
  0.5058277  0.2569625  0.7458356

 Al 
  0.7508502  0.9996151  0.7464420

 Al 
  0.7408173  0.2578746  0.4878781

 Al 
  0.4869697  0.4926910  0.4957787

 Al 
  0.4958406  0.7572113  0.7548104

 Al 
  0.7462626  0.5005631  0.7226474

 Al 
  0.7551619  0.7552572  0.4985174

