32 
charge = 0 
 Al 
  0.0126046  0.0069180  0.0236597

 Al 
  0.9985768  0.2581320  0.2555492

 Al 
  0.2421576  0.0069390  0.2722501

 Al 
  0.2609227  0.2370984  0.0108745

 Al 
  0.4820751  0.9877469  0.0101926

 Al 
  0.5124239  0.2353138  0.2312274

 Al 
  0.7595849  0.0000272  0.2675486

 Al 
  0.7538327  0.2385191  0.9990149

 Al 
  0.9974692  0.4728095  0.9844438

 Al 
  0.9852445  0.7565182  0.2447453

 Al 
  0.2450411  0.5063066  0.2413878

 Al 
  0.2358448  0.7526632  0.0051804

 Al 
  0.0031174  0.9949198  0.5086827

 Al 
  0.9954161  0.2529999  0.7321370

 Al 
  0.2534058  0.0277944  0.7623632

 Al 
  0.2421489  0.2393273  0.4984035

 Al 
  0.0133570  0.5190028  0.4877902

 Al 
  0.0257215  0.7375142  0.7549626

 Al 
  0.2639981  0.5049985  0.7433654

 Al 
  0.2414967  0.7590008  0.5074910

 Al 
  0.4922962  0.5051804  0.0062423

 Al 
  0.4989889  0.7432776  0.2671031

 Al 
  0.7606418  0.4897121  0.2327756

 Al 
  0.7495520  0.7569489  0.9964729

 Al 
  0.4968009  0.9909794  0.5021187

 Al 
  0.5052596  0.2561296  0.7464247

 Al 
  0.7499183  0.9974444  0.7403891

 Al 
  0.7403940  0.2616616  0.4855378

 Al 
  0.4901948  0.4928135  0.5004468

 Al 
  0.4942837  0.7555158  0.7585478

 Al 
  0.7439446  0.5003416  0.7201302

 Al 
  0.7532845  0.7554478  0.5025407

