32 
charge = 0 
 Al 
  0.0115254  0.0069687  0.0249728

 Al 
  0.0002562  0.2570467  0.2546879

 Al 
  0.2415512  0.0085392  0.2725521

 Al 
  0.2602087  0.2374227  0.0107990

 Al 
  0.4834637  0.9864301  0.0102285

 Al 
  0.5111046  0.2353671  0.2309923

 Al 
  0.7596777  0.0009913  0.2670647

 Al 
  0.7524702  0.2394213  0.9993911

 Al 
  0.9970534  0.4718999  0.9855341

 Al 
  0.9848819  0.7567224  0.2447973

 Al 
  0.2444000  0.5071321  0.2409126

 Al 
  0.2346357  0.7543773  0.0055641

 Al 
  0.0034021  0.9945522  0.5093560

 Al 
  0.9965286  0.2527771  0.7317076

 Al 
  0.2546136  0.0279565  0.7622865

 Al 
  0.2422826  0.2390018  0.4989802

 Al 
  0.0137926  0.5183951  0.4880340

 Al 
  0.0260804  0.7356542  0.7544862

 Al 
  0.2659856  0.5056693  0.7428914

 Al 
  0.2414942  0.7589340  0.5063524

 Al 
  0.4925697  0.5049069  0.0051693

 Al 
  0.4988639  0.7440684  0.2660462

 Al 
  0.7609784  0.4897208  0.2328301

 Al 
  0.7491968  0.7560715  0.9966425

 Al 
  0.4965088  0.9910264  0.5029887

 Al 
  0.5051186  0.2558066  0.7466091

 Al 
  0.7497364  0.9970051  0.7390612

 Al 
  0.7403990  0.2623880  0.4850898

 Al 
  0.4909373  0.4929088  0.5013390

 Al 
  0.4939397  0.7551025  0.7593374

 Al 
  0.7435424  0.5003713  0.7197985

 Al 
  0.7527969  0.7553636  0.5034998

