32 
charge = 0 
 Al 
  0.0120687  0.0069440  0.0243379

 Al 
  0.9994208  0.2575887  0.2551136

 Al 
  0.2418445  0.0077558  0.2724135

 Al 
  0.2605688  0.2372469  0.0108361

 Al 
  0.4827645  0.9870836  0.0102087

 Al 
  0.5117667  0.2353336  0.2310950

 Al 
  0.7596406  0.0005111  0.2673135

 Al 
  0.7531471  0.2389795  0.9992129

 Al 
  0.9972538  0.4723380  0.9849921

 Al 
  0.9850527  0.7566296  0.2447688

 Al 
  0.2447156  0.5067262  0.2411440

 Al 
  0.2352272  0.7535320  0.0053673

 Al 
  0.0032659  0.9947329  0.5090194

 Al 
  0.9959792  0.2528872  0.7319180

 Al 
  0.2540208  0.0278934  0.7623335

 Al 
  0.2422071  0.2391478  0.4986931

 Al 
  0.0135847  0.5187082  0.4879078

 Al 
  0.0259232  0.7365638  0.7547213

 Al 
  0.2650104  0.5053475  0.7431216

 Al 
  0.2414843  0.7589686  0.5069217

 Al 
  0.4924286  0.5050443  0.0057027

 Al 
  0.4989258  0.7436748  0.2665771

 Al 
  0.7608212  0.4897060  0.2327979

 Al 
  0.7493713  0.7565096  0.9965583

 Al 
  0.4966524  0.9909918  0.5025543

 Al 
  0.5051879  0.2559737  0.7465150

 Al 
  0.7498243  0.9972167  0.7397121

 Al 
  0.7403916  0.2620378  0.4853064

 Al 
  0.4905710  0.4928568  0.5009108

 Al 
  0.4941092  0.7553067  0.7589513

 Al 
  0.7437330  0.5003527  0.7199483

 Al 
  0.7530407  0.7554119  0.5030258

