32 
charge = 0 
 Al 
  0.0109759  0.0069922  0.0255656

 Al 
  0.0010816  0.2565083  0.2542721

 Al 
  0.2412801  0.0092879  0.2726647

 Al 
  0.2598436  0.2376269  0.0107618

 Al 
  0.4841741  0.9857878  0.0102532

 Al 
  0.5104413  0.2354141  0.2309180

 Al 
  0.7596975  0.0014677  0.2668036

 Al 
  0.7518007  0.2398446  0.9995520

 Al 
  0.9968653  0.4714965  0.9860663

 Al 
  0.9847310  0.7567979  0.2448295

 Al 
  0.2440956  0.5075231  0.2406948

 Al 
  0.2340701  0.7552002  0.0057683

 Al 
  0.0035258  0.9943790  0.5096926

 Al 
  0.9970633  0.2526694  0.7315059

 Al 
  0.2551854  0.0279850  0.7622234

 Al 
  0.2423754  0.2388892  0.4992661

 Al 
  0.0139807  0.5180672  0.4881689

 Al 
  0.0261942  0.7347829  0.7542585

 Al 
  0.2669249  0.5059638  0.7426749

 Al 
  0.2415276  0.7588993  0.5057856

 Al 
  0.4927169  0.5047696  0.0046433

 Al 
  0.4988045  0.7444582  0.2655128

 Al 
  0.7611170  0.4897579  0.2328721

 Al 
  0.7490310  0.7556359  0.9967254

 Al 
  0.4963715  0.9910796  0.5034194

 Al 
  0.5050530  0.2556297  0.7467044

 Al 
  0.7496547  0.9968071  0.7384362

 Al 
  0.7404188  0.2627135  0.4848869

 Al 
  0.4912950  0.4929682  0.5017301

 Al 
  0.4937775  0.7549007  0.7597025

 Al 
  0.7433741  0.5003973  0.7196797

 Al 
  0.7525519  0.7553017  0.5039602

