32 
charge = 0 
 Al 
  0.0092842  0.0070603  0.0270816

 Al 
  0.0034899  0.2549230  0.2531013

 Al 
  0.2405982  0.0113274  0.2728479

 Al 
  0.2587223  0.2383842  0.0106455

 Al 
  0.4863534  0.9839364  0.0103534

 Al 
  0.5084328  0.2356356  0.2308710

 Al 
  0.7596431  0.0028711  0.2659596

 Al 
  0.7498465  0.2410029  0.9999245

 Al 
  0.9963764  0.4704916  0.9876083

 Al 
  0.9843968  0.7569093  0.2449507

 Al 
  0.2432466  0.5086159  0.2401106

 Al 
  0.2325269  0.7575293  0.0064291

 Al 
  0.0038278  0.9938926  0.5107062

 Al 
  0.9985743  0.2523613  0.7309552

 Al 
  0.2567682  0.0278625  0.7619524

 Al 
  0.2427627  0.2387543  0.5001176

 Al 
  0.0144300  0.5169831  0.4886132

 Al 
  0.0262858  0.7323944  0.7536162

 Al 
  0.2695164  0.5066903  0.7421081

 Al 
  0.2417591  0.7587879  0.5040914

 Al 
  0.4932058  0.5043562  0.0031149

 Al 
  0.4986399  0.7455955  0.2639003

 Al 
  0.7614116  0.4899856  0.2330553

 Al 
  0.7485805  0.7543364  0.9969655

 Al 
  0.4959915  0.9913532  0.5046866

 Al 
  0.5048772  0.2550369  0.7470088

 Al 
  0.7494505  0.9963096  0.7367271

 Al 
  0.7405463  0.2635377  0.4843560

 Al 
  0.4923135  0.4932021  0.5026806

 Al 
  0.4933283  0.7543278  0.7606777

 Al 
  0.7429991  0.5005062  0.7195201

 Al 
  0.7518155  0.7550369  0.5052609

