32 
charge = 0 
 Al 
  0.0131330  0.0068932  0.0229419

 Al 
  0.9977278  0.2586753  0.2559923

 Al 
  0.2424905  0.0060888  0.2720596

 Al 
  0.2612692  0.2369808  0.0109141

 Al 
  0.4813994  0.9884152  0.0101802

 Al 
  0.5130761  0.2353077  0.2313895

 Al 
  0.7595107  0.9995396  0.2677702

 Al 
  0.7545270  0.2380414  0.9988008

 Al 
  0.9976957  0.4733157  0.9838894

 Al 
  0.9854574  0.7563883  0.2447230

 Al 
  0.2453752  0.5058710  0.2416440

 Al 
  0.2364883  0.7517747  0.0050022

 Al 
  0.0029578  0.9951129  0.5083461

 Al 
  0.9948394  0.2531137  0.7323623

 Al 
  0.2527709  0.0276608  0.7623769

 Al 
  0.2421093  0.2395401  0.4981152

 Al 
  0.0131095  0.5192800  0.4876813

 Al 
  0.0254765  0.7385018  0.7552114

 Al 
  0.2629523  0.5046223  0.7436228

 Al 
  0.2415326  0.7590330  0.5080602

 Al 
  0.4921712  0.5053153  0.0067856

 Al 
  0.4990545  0.7428778  0.2676241

 Al 
  0.7604426  0.4897394  0.2327608

 Al 
  0.7497401  0.7573907  0.9963876

 Al 
  0.4969544  0.9909868  0.5016818

 Al 
  0.5053327  0.2562744  0.7463368

 Al 
  0.7500186  0.9976833  0.7410908

 Al 
  0.7404089  0.2612593  0.4857829

 Al 
  0.4898099  0.4927776  0.4999493

 Al 
  0.4944644  0.7557274  0.7581246

 Al 
  0.7441760  0.5003379  0.7203455

 Al 
  0.7535283  0.7554700  0.5020469

