32 
charge = 0 
 Al 
  0.0104190  0.0070157  0.0261138

 Al 
  0.0018959  0.2559737  0.2538699

 Al 
  0.2410301  0.0100020  0.2727501

 Al 
  0.2594735  0.2378558  0.0107247

 Al 
  0.4848918  0.9851579  0.0102817

 Al 
  0.5097743  0.2354747  0.2308747

 Al 
  0.7596975  0.0019405  0.2665326

 Al 
  0.7511410  0.2402480  0.9996956

 Al 
  0.9966895  0.4711277  0.9865898

 Al 
  0.9846010  0.7568536  0.2448654

 Al 
  0.2438010  0.5079006  0.2404881

 Al 
  0.2335305  0.7559997  0.0059799

 Al 
  0.0036384  0.9942107  0.5100304

 Al 
  0.9975818  0.2525642  0.7313128

 Al 
  0.2557349  0.0279788  0.7621467

 Al 
  0.2424868  0.2388100  0.4995508

 Al 
  0.0141503  0.5177219  0.4883100

 Al 
  0.0262648  0.7339501  0.7540369

 Al 
  0.2678259  0.5062324  0.7424719

 Al 
  0.2415833  0.7588634  0.5052188

 Al 
  0.4928729  0.5046322  0.0041260

 Al 
  0.4987476  0.7448431  0.2649770

 Al 
  0.7612346  0.4898136  0.2329229

 Al 
  0.7488726  0.7552015  0.9968071

 Al 
  0.4962390  0.9911527  0.5038463

 Al 
  0.5049899  0.2554428  0.7468034

 Al 
  0.7495792  0.9966252  0.7378385

 Al 
  0.7404497  0.2630130  0.4846975

 Al 
  0.4916427  0.4930362  0.5020853

 Al 
  0.4936216  0.7547052  0.7600478

 Al 
  0.7432281  0.5004282  0.7195943

 Al 
  0.7523081  0.7552262  0.5044082

