32 
charge = 0 
 Al 
  0.0081147  0.0071036  0.0278736

 Al 
  0.0050406  0.2538983  0.2523873

 Al 
  0.2402554  0.0125229  0.2728454

 Al 
  0.2579588  0.2390043  0.0105564

 Al 
  0.4878496  0.9827719  0.0104450

 Al 
  0.5070764  0.2358509  0.2309811

 Al 
  0.7595119  0.0037882  0.2653532

 Al 
  0.7485743  0.2416885  0.0000817

 Al 
  0.9961103  0.4699866  0.9885897

 Al 
  0.9842607  0.7568907  0.2450584

 Al 
  0.2427380  0.5092867  0.2397740

 Al 
  0.2316185  0.7589760  0.0069118

 Al 
  0.0039726  0.9935944  0.5113843

 Al 
  0.9995087  0.2521657  0.7306396

 Al 
  0.2577212  0.0276113  0.7617073

 Al 
  0.2431105  0.2388310  0.5006794

 Al 
  0.0146354  0.5161787  0.4889411

 Al 
  0.0261509  0.7309712  0.7532214

 Al 
  0.2710621  0.5070479  0.7417962

 Al 
  0.2420214  0.7587025  0.5029664

 Al 
  0.4935672  0.5040778  0.0021385

 Al 
  0.4985409  0.7463294  0.2628162

 Al 
  0.7615118  0.4902319  0.2332286

 Al 
  0.7483231  0.7534701  0.9971165

 Al 
  0.4957626  0.9916267  0.5055109

 Al 
  0.5047832  0.2545901  0.7472266

 Al 
  0.7493478  0.9960596  0.7357247

 Al 
  0.7406873  0.2639671  0.4840602

 Al 
  0.4929533  0.4934075  0.5031261

 Al 
  0.4930585  0.7539689  0.7612296

 Al 
  0.7428556  0.5006002  0.7195745

 Al 
  0.7513180  0.7547956  0.5060566

