32 
charge = 0 
 Al 
  0.9960138  0.0072633  0.0278600

 Al 
  0.0165116  0.2467427  0.2488330

 Al 
  0.2408705  0.0180895  0.2692874

 Al 
  0.2510618  0.2470781  0.0083573

 Al 
  0.5023068  0.9756015  0.0119549

 Al 
  0.4944768  0.2401676  0.2361430

 Al 
  0.7552535  0.0113385  0.2591988

 Al 
  0.7377221  0.2455658  0.9987575

 Al 
  0.9952440  0.4704742  0.9956760

 Al 
  0.9851072  0.7540889  0.2472860

 Al 
  0.2401911  0.5139300  0.2381244

 Al 
  0.2268898  0.7689805  0.0122370

 Al 
  0.0039664  0.9914187  0.5173345

 Al 
  0.0057658  0.2507784  0.7299626

 Al 
  0.2630439  0.0202168  0.7583412

 Al 
  0.2489109  0.2445473  0.5053624

 Al 
  0.0139189  0.5063970  0.4924001

 Al 
  0.0198084  0.7225917  0.7506015

 Al 
  0.2789354  0.5067125  0.7408594

 Al 
  0.2472563  0.7572831  0.4932045

 Al 
  0.4979753  0.5012673  0.9951834

 Al 
  0.4980979  0.7518365  0.2532523

 Al 
  0.7594117  0.4949755  0.2367135

 Al 
  0.7477699  0.7452329  0.9980979

 Al 
  0.4945003  0.9965026  0.5117073

 Al 
  0.5051297  0.2491275  0.7495953

 Al 
  0.7494208  0.9966326  0.7313759

 Al 
  0.7436018  0.2643508  0.4829229

 Al 
  0.4980595  0.4969519  0.5009542

 Al 
  0.4916625  0.7516497  0.7629585

 Al 
  0.7446748  0.5015036  0.7252079

 Al 
  0.7464432  0.7507029  0.5102507

