32 
charge = 0 
 Al 
  0.9969717  0.0072682  0.0282276

 Al 
  0.0158358  0.2471177  0.2489208

 Al 
  0.2406391  0.0179496  0.2697032

 Al 
  0.2515457  0.2464098  0.0086283

 Al 
  0.5012215  0.9759084  0.0118249

 Al 
  0.4953975  0.2397245  0.2355737

 Al 
  0.7557188  0.0108373  0.2596530

 Al 
  0.7384870  0.2453777  0.9989703

 Al 
  0.9952490  0.4701995  0.9952539

 Al 
  0.9849686  0.7544020  0.2470459

 Al 
  0.2402641  0.5136553  0.2381813

 Al 
  0.2270692  0.7683927  0.0118224

 Al 
  0.0040060  0.9915635  0.5169360

 Al 
  0.0054106  0.2508613  0.7298748

 Al 
  0.2628261  0.0209952  0.7586060

 Al 
  0.2483664  0.2439025  0.5050579

 Al 
  0.0140810  0.5072224  0.4921415

 Al 
  0.0204755  0.7230075  0.7507475

 Al 
  0.2786768  0.5068969  0.7408445

 Al 
  0.2467625  0.7574328  0.4938803

 Al 
  0.4976004  0.5014900  0.9955770

 Al 
  0.4981003  0.7515036  0.2539169

 Al 
  0.7597161  0.4945287  0.2363583

 Al 
  0.7477093  0.7458628  0.9980496

 Al 
  0.4945436  0.9960435  0.5113472

 Al 
  0.5050344  0.2495829  0.7494084

 Al 
  0.7493688  0.9964494  0.7314428

 Al 
  0.7433172  0.2644820  0.4829340

 Al 
  0.4977006  0.4966128  0.5014133

 Al 
  0.4917083  0.7517697  0.7629969

 Al 
  0.7444050  0.5014653  0.7245471

 Al 
  0.7468219  0.7510829  0.5101171

