32 
charge = 0 
 Al 
  0.9940275  0.0072435  0.0269652

 Al 
  0.0178209  0.2460460  0.2487265

 Al 
  0.2414126  0.0182726  0.2683815

 Al 
  0.2500842  0.2484605  0.0077422

 Al 
  0.5045332  0.9750743  0.0122147

 Al 
  0.4925981  0.2411316  0.2373719

 Al 
  0.7542411  0.0123385  0.2582781

 Al 
  0.7361702  0.2459272  0.9982897

 Al 
  0.9952440  0.4711227  0.9965064

 Al 
  0.9854091  0.7534194  0.2478145

 Al 
  0.2400859  0.5144671  0.2380291

 Al 
  0.2265816  0.7701376  0.0130872

 Al 
  0.0038798  0.9911254  0.5181241

 Al 
  0.0064588  0.2506163  0.7302089

 Al 
  0.2634214  0.0185399  0.7578053

 Al 
  0.2500693  0.2459420  0.5059626

 Al 
  0.0135513  0.5046681  0.4929261

 Al 
  0.0183852  0.7218083  0.7503205

 Al 
  0.2793389  0.5062794  0.7409138

 Al 
  0.2482996  0.7569489  0.4918432

 Al 
  0.4987587  0.5008057  0.9944260

 Al 
  0.4981078  0.7524863  0.2519133

 Al 
  0.7587310  0.4959148  0.2374845

 Al 
  0.7479357  0.7439310  0.9981870

 Al 
  0.4944372  0.9974766  0.5123979

 Al 
  0.5053537  0.2481808  0.7499765

 Al 
  0.7495421  0.9970558  0.7313413

 Al 
  0.7442107  0.2640265  0.4829278

 Al 
  0.4987983  0.4976721  0.4999097

 Al 
  0.4915895  0.7514232  0.7628174

 Al 
  0.7452688  0.5015569  0.7266534

 Al 
  0.7456562  0.7499035  0.5104487

