32 
charge = 0 
 Al 
  0.9996696  0.0072682  0.0290097

 Al 
  0.0137543  0.2483243  0.2493119

 Al 
  0.2401119  0.0173482  0.2707960

 Al 
  0.2529602  0.2445250  0.0093015

 Al 
  0.4981189  0.9769776  0.0114561

 Al 
  0.4980533  0.2385513  0.2340726

 Al 
  0.7569427  0.0093523  0.2609685

 Al 
  0.7407047  0.2447800  0.9995112

 Al 
  0.9952960  0.4695782  0.9939706

 Al 
  0.9846134  0.7552374  0.2464197

 Al 
  0.2405648  0.5128199  0.2383892

 Al 
  0.2277041  0.7666031  0.0106344

 Al 
  0.0041087  0.9919818  0.5157455

 Al 
  0.0043203  0.2511101  0.7297411

 Al 
  0.2620675  0.0230645  0.7593758

 Al 
  0.2468838  0.2422021  0.5041458

 Al 
  0.0144758  0.5095218  0.4913915

 Al 
  0.0222699  0.7243354  0.7511980

 Al 
  0.2776979  0.5073202  0.7408569

 Al 
  0.2454062  0.7578239  0.4958604

 Al 
  0.4965596  0.5021162  0.9968046

 Al 
  0.4981362  0.7504901  0.2558611

 Al 
  0.7604772  0.4933073  0.2354116

 Al 
  0.7476165  0.7476499  0.9978912

 Al 
  0.4947119  0.9947923  0.5102260

 Al 
  0.5048129  0.2508589  0.7488775

 Al 
  0.7492525  0.9960225  0.7318252

 Al 
  0.7425449  0.2647505  0.4830182

 Al 
  0.4966697  0.4956945  0.5025209

 Al 
  0.4918853  0.7521509  0.7629857

 Al 
  0.7437181  0.5013192  0.7228256

 Al 
  0.7478912  0.7521249  0.5095973

