32 
charge = 0 
 Al 
  0.9919707  0.0072138  0.0258651

 Al 
  0.0190473  0.2454334  0.2487179

 Al 
  0.2420548  0.0183209  0.2673927

 Al 
  0.2491090  0.2498812  0.0070306

 Al 
  0.5068016  0.9746795  0.0124684

 Al 
  0.4906972  0.2421885  0.2387085

 Al 
  0.7531323  0.0133211  0.2573561

 Al 
  0.7346109  0.2462663  0.9977811

 Al 
  0.9952577  0.4718937  0.9973058

 Al 
  0.9857371  0.7527053  0.2484023

 Al 
  0.2400413  0.5149782  0.2379610

 Al 
  0.2263502  0.7712514  0.0139449

 Al 
  0.0037894  0.9908272  0.5188840

 Al 
  0.0071209  0.2504579  0.7305529

 Al 
  0.2637122  0.0167257  0.7572781

 Al 
  0.2513019  0.2474543  0.5065430

 Al 
  0.0131343  0.5028612  0.4934545

 Al 
  0.0168680  0.7210980  0.7500569

 Al 
  0.2795852  0.5057683  0.7410029

 Al 
  0.2493985  0.7565764  0.4904918

 Al 
  0.4995743  0.5003280  0.9937243

 Al 
  0.4981412  0.7531026  0.2505792

 Al 
  0.7579600  0.4969011  0.2383211

 Al 
  0.7481622  0.7425882  0.9982637

 Al 
  0.4944087  0.9985087  0.5130303

 Al 
  0.5056161  0.2472006  0.7503638

 Al 
  0.7496857  0.9975459  0.7314428

 Al 
  0.7448616  0.2636256  0.4829724

 Al 
  0.4995557  0.4984394  0.4987154

 Al 
  0.4915450  0.7512178  0.7625922

 Al 
  0.7459259  0.5015717  0.7282424

 Al 
  0.7448443  0.7490656  0.5105539

