32 
charge = 0 
 Al 
  0.9848795  0.0070331  0.0208146

 Al 
  0.0222712  0.2441166  0.2494332

 Al 
  0.2448258  0.0174533  0.2636280

 Al 
  0.2460485  0.2546582  0.0039565

 Al 
  0.5143260  0.9745050  0.0131045

 Al 
  0.4845243  0.2463183  0.2437194

 Al 
  0.7488986  0.0163036  0.2544738

 Al 
  0.7296520  0.2472563  0.9959581

 Al 
  0.9953381  0.4752450  0.9996844

 Al 
  0.9869078  0.7501943  0.2507636

 Al 
  0.2403718  0.5163928  0.2379214

 Al 
  0.2261757  0.7745186  0.0166625

 Al 
  0.0035258  0.9898124  0.5209928

 Al 
  0.0090268  0.2499691  0.7324736

 Al 
  0.2639560  0.0099104  0.7557237

 Al 
  0.2557794  0.2530815  0.5082236

 Al 
  0.0114301  0.4965484  0.4951203

 Al 
  0.0114029  0.7194000  0.7493206

 Al 
  0.2792127  0.5036001  0.7415004

 Al 
  0.2532709  0.7550666  0.4863163

 Al 
  0.5023798  0.4987006  0.9919175

 Al 
  0.4984568  0.7547993  0.2463876

 Al 
  0.7548215  0.5003317  0.2414967

 Al 
  0.7493602  0.7380130  0.9984035

 Al 
  0.4946339  0.0022053  0.5145302

 Al 
  0.5066791  0.2438778  0.7515940

 Al 
  0.7503181  0.9995409  0.7327830

 Al 
  0.7472563  0.2618002  0.4834315

 Al 
  0.5021620  0.5012079  0.4938914

 Al 
  0.4916353  0.7507141  0.7612334

 Al 
  0.7484159  0.5012524  0.7343535

 Al 
  0.7420598  0.7461735  0.5101864

