32 
charge = 0 
 Al 
  0.9909299  0.0071940  0.0252450

 Al 
  0.0196203  0.2451624  0.2487513

 Al 
  0.2424076  0.0182924  0.2668729

 Al 
  0.2486288  0.2505953  0.0066420

 Al 
  0.5079365  0.9745372  0.0125885

 Al 
  0.4897530  0.2427466  0.2394065

 Al 
  0.7525494  0.0137988  0.2569031

 Al 
  0.7338399  0.2464259  0.9975162

 Al 
  0.9952688  0.4723194  0.9976907

 Al 
  0.9859066  0.7523390  0.2487154

 Al 
  0.2400426  0.5152208  0.2379375

 Al 
  0.2262636  0.7717861  0.0143706

 Al 
  0.0037461  0.9906774  0.5192466

 Al 
  0.0074365  0.2503812  0.7307621

 Al 
  0.2638211  0.0157789  0.7570232

 Al 
  0.2519380  0.2482427  0.5068202

 Al 
  0.0129090  0.5019417  0.4937144

 Al 
  0.0160858  0.7207762  0.7499319

 Al 
  0.2796470  0.5054886  0.7410574

 Al 
  0.2499592  0.7563772  0.4898309

 Al 
  0.4999889  0.5000866  0.9933988

 Al 
  0.4981672  0.7533946  0.2499233

 Al 
  0.7575454  0.4974048  0.2387592

 Al 
  0.7482984  0.7419113  0.9982971

 Al 
  0.4944087  0.9990397  0.5133186

 Al 
  0.5057571  0.2467056  0.7505557

 Al 
  0.7497661  0.9978120  0.7315430

 Al 
  0.7451983  0.2634003  0.4830095

 Al 
  0.4999394  0.4988342  0.4980706

 Al 
  0.4915338  0.7511249  0.7624474

 Al 
  0.7462725  0.5015643  0.7290802

 Al 
  0.7444334  0.7486387  0.5105700

