32 
charge = 0 
 Al 
  0.9830528  0.0069675  0.0191835

 Al 
  0.0228145  0.2439854  0.2498144

 Al 
  0.2456784  0.0169558  0.2625674

 Al 
  0.2453517  0.2558425  0.0029850

 Al 
  0.5161638  0.9747946  0.0131652

 Al 
  0.4830541  0.2475249  0.2450968

 Al 
  0.7477117  0.0169596  0.2538303

 Al 
  0.7285122  0.2474840  0.9955101

 Al 
  0.9953517  0.4762871  0.0002129

 Al 
  0.9872011  0.7495594  0.2514702

 Al 
  0.2405871  0.5166526  0.2379573

 Al 
  0.2263007  0.7752129  0.0172727

 Al 
  0.0034788  0.9895488  0.5213715

 Al 
  0.0094203  0.2498515  0.7331840

 Al 
  0.2638087  0.0080095  0.7554069

 Al 
  0.2569860  0.2546149  0.5085726

 Al 
  0.0109190  0.4949124  0.4955015

 Al 
  0.0099562  0.7191711  0.7491708

 Al 
  0.2787993  0.5029454  0.7416724

 Al 
  0.2542807  0.7546186  0.4853918

 Al 
  0.5030803  0.4982946  0.9916180

 Al 
  0.4986016  0.7551161  0.2454210

 Al 
  0.7538897  0.5011992  0.2423890

 Al 
  0.7497822  0.7368546  0.9984023

 Al 
  0.4947923  0.0031805  0.5147121

 Al 
  0.5069761  0.2430548  0.7518675

 Al 
  0.7505173  0.0001089  0.7333907

 Al 
  0.7479135  0.2612160  0.4836444

 Al 
  0.5028365  0.5019442  0.4925016

 Al 
  0.4917269  0.7506336  0.7607309

 Al 
  0.7490953  0.5010457  0.7360799

 Al 
  0.7413556  0.7454520  0.5099042

