32 
charge = 0 
 Al 
  0.9878286  0.0071222  0.0231511

 Al 
  0.0211289  0.2445139  0.2489951

 Al 
  0.2435709  0.0180102  0.2652591

 Al 
  0.2472588  0.2527004  0.0053599

 Al 
  0.5112606  0.9743453  0.0129004

 Al 
  0.4870130  0.2445040  0.2415660

 Al 
  0.7507326  0.0151428  0.2556086

 Al 
  0.7316259  0.2468702  0.9967143

 Al 
  0.9953059  0.4737228  0.9987612

 Al 
  0.9864202  0.7512376  0.2497141

 Al 
  0.2401416  0.5158742  0.2379041

 Al 
  0.2261287  0.7732662  0.0155883

 Al 
  0.0036223  0.9902344  0.5202242

 Al 
  0.0083040  0.2501646  0.7315281

 Al 
  0.2640005  0.0128484  0.7563140

 Al 
  0.2538773  0.2506732  0.5075850

 Al 
  0.0121888  0.4991857  0.4944594

 Al 
  0.0137110  0.7199619  0.7495953

 Al 
  0.2795951  0.5045753  0.7412603

 Al 
  0.2516484  0.7557373  0.4879536

 Al 
  0.5012215  0.4993701  0.9925511

 Al 
  0.4982835  0.7541780  0.2480508

 Al 
  0.7562175  0.4989085  0.2401218

 Al 
  0.7487822  0.7399040  0.9983701

 Al 
  0.4944730  0.0006472  0.5140451

 Al 
  0.5062138  0.2452416  0.7511076

 Al 
  0.7500297  0.9986634  0.7320368

 Al 
  0.7462316  0.2626405  0.4831778

 Al 
  0.5010767  0.5000371  0.4960163

 Al 
  0.4915499  0.7508861  0.7619066

 Al 
  0.7473467  0.5014653  0.7316977

 Al 
  0.7432120  0.7473677  0.5104760

