32 
charge = 0 
 Al 
  0.9888520  0.0071482  0.0238837

 Al 
  0.0206636  0.2447020  0.2488899

 Al 
  0.2431687  0.0181365  0.2658037

 Al 
  0.2477018  0.2520098  0.0058042

 Al 
  0.5101728  0.9743701  0.0128063

 Al 
  0.4879053  0.2439075  0.2408408

 Al 
  0.7513452  0.0147121  0.2560257

 Al 
  0.7323425  0.2467291  0.9969803

 Al 
  0.9952923  0.4732377  0.9984196

 Al 
  0.9862494  0.7516026  0.2493738

 Al 
  0.2400933  0.5156700  0.2379090

 Al 
  0.2261534  0.7727959  0.0151948

 Al 
  0.0036619  0.9903804  0.5199186

 Al 
  0.0080305  0.2502339  0.7312509

 Al 
  0.2639659  0.0138335  0.7565393

 Al 
  0.2532288  0.2498589  0.5073425

 Al 
  0.0124350  0.5000990  0.4942193

 Al 
  0.0145018  0.7202069  0.7497005

 Al 
  0.2796520  0.5048896  0.7411873

 Al 
  0.2510878  0.7559564  0.4885575

 Al 
  0.5008156  0.4996052  0.9928110

 Al 
  0.4982389  0.7539330  0.2486560

 Al 
  0.7566717  0.4984110  0.2396626

 Al 
  0.7486090  0.7405648  0.9983503

 Al 
  0.4944409  0.0001126  0.5138273

 Al 
  0.5060579  0.2457230  0.7509294

 Al 
  0.7499381  0.9983738  0.7318412

 Al 
  0.7458863  0.2629053  0.4831122

 Al 
  0.5007017  0.4996362  0.4967155

 Al 
  0.4915375  0.7509591  0.7621034

 Al 
  0.7469853  0.5015111  0.7308141

 Al 
  0.7436142  0.7477872  0.5105304

