32 
charge = 0 
 Al 
  0.9868212  0.0070937  0.0223925

 Al 
  0.0215522  0.2443530  0.2491213

 Al 
  0.2439830  0.0178518  0.2647134

 Al 
  0.2468356  0.2533736  0.0049020

 Al 
  0.5123175  0.9743602  0.0129820

 Al 
  0.4861492  0.2451067  0.2422900

 Al 
  0.7501176  0.0155524  0.2552101

 Al 
  0.7309366  0.2470051  0.9964544

 Al 
  0.9953171  0.4742216  0.9990867

 Al 
  0.9865873  0.7508799  0.2500606

 Al 
  0.2402047  0.5160636  0.2379041

 Al 
  0.2261249  0.7737105  0.0159658

 Al 
  0.0035865  0.9900896  0.5205064

 Al 
  0.0085627  0.2500965  0.7318252

 Al 
  0.2640092  0.0118620  0.7561024

 Al 
  0.2545196  0.2514863  0.5078127

 Al 
  0.0119388  0.4982872  0.4946909

 Al 
  0.0129276  0.7197453  0.7494963

 Al 
  0.2795023  0.5042535  0.7413371

 Al 
  0.2522004  0.7555158  0.4873769

 Al 
  0.5016200  0.4991399  0.9923147

 Al 
  0.4983355  0.7544045  0.2474704

 Al 
  0.7557559  0.4993961  0.2405821

 Al 
  0.7489666  0.7392555  0.9983862

 Al 
  0.4945164  0.0011769  0.5142344

 Al 
  0.5063697  0.2447725  0.7512784

 Al 
  0.7501238  0.9989567  0.7322595

 Al 
  0.7465769  0.2623670  0.4832533

 Al 
  0.5014467  0.5004331  0.4953084

 Al 
  0.4915710  0.7508217  0.7616950

 Al 
  0.7477068  0.5014071  0.7325863

 Al 
  0.7428172  0.7469581  0.5103992

