32 
charge = 0 
 Al 
  0.9797931  0.0068301  0.0158618

 Al 
  0.0234035  0.2439953  0.2507363

 Al 
  0.2473628  0.0157269  0.2605576

 Al 
  0.2442391  0.2578820  0.0010173

 Al 
  0.5192899  0.9757574  0.0130773

 Al 
  0.4806111  0.2498812  0.2476350

 Al 
  0.7454953  0.0179843  0.2528402

 Al 
  0.7266930  0.2478850  0.9947985

 Al 
  0.9953455  0.4783724  0.0010779

 Al 
  0.9876949  0.7484741  0.2528724

 Al 
  0.2411440  0.5169657  0.2380674

 Al 
  0.2267474  0.7762710  0.0182045

 Al 
  0.0034342  0.9890723  0.5218021

 Al 
  0.0099983  0.2496399  0.7347446

 Al 
  0.2632741  0.0044292  0.7549577

 Al 
  0.2591951  0.2574192  0.5090973

 Al 
  0.0099067  0.4919930  0.4961128

 Al 
  0.0073462  0.7190448  0.7489456

 Al 
  0.2776793  0.5016781  0.7420338

 Al 
  0.2560950  0.7537449  0.4839587

 Al 
  0.5042721  0.4976041  0.9912999

 Al 
  0.4989518  0.7555220  0.2438382

 Al 
  0.7520742  0.5026991  0.2440696

 Al 
  0.7506794  0.7348238  0.9983503

 Al 
  0.4952181  0.0049317  0.5147493

 Al 
  0.5075033  0.2416477  0.7522796

 Al 
  0.7509207  0.0011559  0.7348040

 Al 
  0.7491387  0.2600342  0.4841642

 Al 
  0.5040518  0.5032758  0.4898978

 Al 
  0.4919905  0.7505433  0.7596443

 Al 
  0.7503205  0.5004913  0.7393260

 Al 
  0.7401329  0.7442268  0.5091790

