32 
charge = 0 
 Al 
  0.9783513  0.0067583  0.0141948

 Al 
  0.0234728  0.2441092  0.2512611

 Al 
  0.2481820  0.0150215  0.2596097

 Al 
  0.2438159  0.2587397  0.0000322

 Al 
  0.5205844  0.9764071  0.0129226

 Al 
  0.4796272  0.2510259  0.2487835

 Al 
  0.7444755  0.0183654  0.2524887

 Al 
  0.7260086  0.2480669  0.9945461

 Al 
  0.9953245  0.4794070  0.0014306

 Al 
  0.9878917  0.7480261  0.2535654

 Al 
  0.2414744  0.5170239  0.2381380

 Al 
  0.2270581  0.7766484  0.0185288

 Al 
  0.0034342  0.9888570  0.5218603

 Al 
  0.0101938  0.2495396  0.7355861

 Al 
  0.2628991  0.0027523  0.7548166

 Al 
  0.2601950  0.2586827  0.5092817

 Al 
  0.0094055  0.4907109  0.4963480

 Al 
  0.0061829  0.7191377  0.7488614

 Al 
  0.2769974  0.5010779  0.7422194

 Al 
  0.2569019  0.7533253  0.4834439

 Al 
  0.5047597  0.4973219  0.9912640

 Al 
  0.4991585  0.7556222  0.2432045

 Al 
  0.7512017  0.5033290  0.2448555

 Al 
  0.7511447  0.7339476  0.9983021

 Al 
  0.4954817  0.0057052  0.5146144

 Al 
  0.5077224  0.2410611  0.7524182

 Al 
  0.7511225  0.0016249  0.7355861

 Al 
  0.7497055  0.2594377  0.4844711

 Al 
  0.5045938  0.5038711  0.4887048

 Al 
  0.4921588  0.7505247  0.7590689

 Al 
  0.7508613  0.5001460  0.7408358

 Al 
  0.7396144  0.7437243  0.5087545

