32 
charge = 0 
 Al 
  0.9813574  0.0068994  0.0175276

 Al 
  0.0231882  0.2439496  0.2502525

 Al 
  0.2465262  0.0163754  0.2615440

 Al 
  0.2447490  0.2569180  0.0020024

 Al 
  0.5178197  0.9752166  0.0131565

 Al 
  0.4817497  0.2487142  0.2464049

 Al 
  0.7465757  0.0175177  0.2532857

 Al 
  0.7275259  0.2476932  0.9951215

 Al 
  0.9953554  0.4773316  0.0006745

 Al 
  0.9874647  0.7489852  0.2521744

 Al 
  0.2408470  0.5168432  0.2380068

 Al 
  0.2264937  0.7757958  0.0177862

 Al 
  0.0034491  0.9893025  0.5216413

 Al 
  0.0097433  0.2497426  0.7339426

 Al 
  0.2635798  0.0061804  0.7551532

 Al 
  0.2581258  0.2560641  0.5088622

 Al 
  0.0104116  0.4933927  0.4958319

 Al 
  0.0086023  0.7190547  0.7490471

 Al 
  0.2782833  0.5023019  0.7418507

 Al 
  0.2552225  0.7541768  0.4846060

 Al 
  0.5037127  0.4979283  0.9914150

 Al 
  0.4987662  0.7553549  0.2445733

 Al 
  0.7529714  0.5019900  0.2432479

 Al 
  0.7502240  0.7357915  0.9983850

 Al 
  0.4949879  0.0040901  0.5147839

 Al 
  0.5072534  0.2423110  0.7520964

 Al 
  0.7507190  0.0006497  0.7340689

 Al 
  0.7485422  0.2606269  0.4838882

 Al 
  0.5034664  0.5026348  0.4911650

 Al 
  0.4918469  0.7505779  0.7601988

 Al 
  0.7497314  0.5007920  0.7377407

 Al 
  0.7407121  0.7448022  0.5095651

