32 
charge = 0 
 Al 
  0.9805591  0.0068648  0.0166947

 Al 
  0.0233144  0.2439632  0.2504888

 Al 
  0.2469457  0.0160598  0.2610465

 Al 
  0.2444829  0.2574130  0.0015098

 Al 
  0.5185783  0.9754727  0.0131256

 Al 
  0.4811606  0.2493008  0.2470299

 Al 
  0.7460287  0.0177615  0.2530506

 Al 
  0.7270902  0.2477910  0.9949507

 Al 
  0.9953517  0.4778526  0.0008824

 Al 
  0.9875835  0.7487216  0.2525234

 Al 
  0.2409905  0.5169125  0.2380352

 Al 
  0.2266138  0.7760457  0.0180078

 Al 
  0.0034392  0.9891849  0.5217353

 Al 
  0.0098795  0.2496906  0.7343386

 Al 
  0.2634350  0.0052955  0.7550480

 Al 
  0.2586691  0.2567534  0.5089859

 Al 
  0.0101592  0.4926773  0.4959779

 Al 
  0.0079625  0.7190374  0.7489939

 Al 
  0.2779912  0.5019875  0.7419422

 Al 
  0.2556668  0.7539590  0.4842656

 Al 
  0.5040010  0.4977600  0.9913470

 Al 
  0.4988565  0.7554478  0.2441921

 Al 
  0.7525197  0.5023538  0.2436637

 Al 
  0.7504505  0.7352953  0.9983701

 Al 
  0.4950980  0.0045196  0.5147790

 Al 
  0.5073821  0.2419695  0.7521942

 Al 
  0.7508193  0.0009071  0.7344302

 Al 
  0.7488441  0.2603299  0.4840218

 Al 
  0.5037647  0.5029615  0.4905227

 Al 
  0.4919150  0.7505581  0.7599240

 Al 
  0.7500322  0.5006472  0.7385426

 Al 
  0.7404151  0.7445052  0.5093770

