32 
charge = 0 
 Al 
  0.9821890  0.0069341  0.0183568

 Al 
  0.0230211  0.2439570  0.2500272

 Al 
  0.2461042  0.0166749  0.2620514

 Al 
  0.2450386  0.2563945  0.0024949

 Al 
  0.5170152  0.9749901  0.0131701

 Al 
  0.4823821  0.2481226  0.2457613

 Al 
  0.7471363  0.0172504  0.2535456

 Al 
  0.7279999  0.2475905  0.9953072

 Al 
  0.9953554  0.4768093  0.0004517

 Al 
  0.9873373  0.7492649  0.2518229

 Al 
  0.2407121  0.5167566  0.2379796

 Al 
  0.2263898  0.7755185  0.0175412

 Al 
  0.0034615  0.9894238  0.5215200

 Al 
  0.0095899  0.2497958  0.7335577

 Al 
  0.2637048  0.0070850  0.7552720

 Al 
  0.2575640  0.2553500  0.5087248

 Al 
  0.0106653  0.4941377  0.4956722

 Al 
  0.0092669  0.7190993  0.7491065

 Al 
  0.2785530  0.5026212  0.7417615

 Al 
  0.2547609  0.7543958  0.4849809

 Al 
  0.5034058  0.4981065  0.9915054

 Al 
  0.4986808  0.7552448  0.2449829

 Al 
  0.7534280  0.5016051  0.2428234

 Al 
  0.7500012  0.7363101  0.9983961

 Al 
  0.4948852  0.0036434  0.5147616

 Al 
  0.5071185  0.2426724  0.7519875

 Al 
  0.7506175  0.0003836  0.7337223

 Al 
  0.7482315  0.2609215  0.4837619

 Al 
  0.5031570  0.5022957  0.4918259

 Al 
  0.4917838  0.7506027  0.7604685

 Al 
  0.7494183  0.5009245  0.7369190

 Al 
  0.7410264  0.7451178  0.5097409

