32 
charge = 0 
 Al 
  0.9770185  0.0066866  0.0125217

 Al 
  0.0234097  0.2442800  0.2518205

 Al 
  0.2489889  0.0142666  0.2586914

 Al 
  0.2434743  0.2594983  0.9990458

 Al 
  0.5217155  0.9771608  0.0126887

 Al 
  0.4787882  0.2521546  0.2498564

 Al 
  0.7435090  0.0186699  0.2522289

 Al 
  0.7254628  0.2482427  0.9943641

 Al 
  0.9952886  0.4804416  0.0017437

 Al 
  0.9880588  0.7476375  0.2542585

 Al 
  0.2418358  0.5170214  0.2382184

 Al 
  0.2274231  0.7769355  0.0187627

 Al 
  0.0034491  0.9886553  0.5218195

 Al 
  0.0103324  0.2494394  0.7364685

 Al 
  0.2624585  0.0011398  0.7547238

 Al 
  0.2611331  0.2598597  0.5094228

 Al 
  0.0089030  0.4895339  0.4965423

 Al 
  0.0051037  0.7193245  0.7487921

 Al 
  0.2762462  0.5005037  0.7424100

 Al 
  0.2576518  0.7529145  0.4830503

 Al 
  0.5051780  0.4970831  0.9912999

 Al 
  0.4993837  0.7556631  0.2426613

 Al 
  0.7503502  0.5038872  0.2456091

 Al 
  0.7516200  0.7331543  0.9982402

 Al 
  0.4957799  0.0064192  0.5143842

 Al 
  0.5079105  0.2405438  0.7525147

 Al 
  0.7513254  0.0020556  0.7364128

 Al 
  0.7502450  0.2588362  0.4848126

 Al 
  0.5050975  0.5044243  0.4875860

 Al 
  0.4923531  0.7505161  0.7584761

 Al 
  0.7513527  0.4997562  0.7422764

 Al 
  0.7391552  0.7432924  0.5082954

