32 
charge = 0 
 Al 
  0.9719358  0.0063338  0.0046186

 Al 
  0.0217056  0.2455349  0.2547906

 Al 
  0.2525927  0.0102990  0.2546978

 Al 
  0.2427924  0.2619239  0.9944495

 Al 
  0.5251213  0.9818598  0.0104822

 Al 
  0.4764863  0.2573090  0.2539602

 Al 
  0.7396466  0.0192429  0.2521039

 Al 
  0.7245359  0.2490879  0.9944433

 Al 
  0.9949693  0.4853596  0.0028414

 Al 
  0.9884808  0.7465064  0.2575875

 Al 
  0.2438976  0.5162900  0.2387283

 Al 
  0.2297857  0.7772152  0.0186921

 Al 
  0.0036842  0.9878719  0.5203975

 Al 
  0.0103732  0.2489048  0.7411378

 Al 
  0.2596604  0.9942094  0.7547968

 Al 
  0.2648272  0.2643532  0.5095923

 Al 
  0.0064638  0.4852520  0.4970175

 Al 
  0.0009641  0.7213306  0.7485978

 Al 
  0.2719692  0.4982538  0.7434323

 Al 
  0.2605997  0.7510631  0.4826085

 Al 
  0.5062509  0.4965398  0.9922170

 Al 
  0.5007215  0.7552126  0.2410339

 Al 
  0.7466177  0.5056680  0.2488070

 Al 
  0.7538897  0.7304242  0.9977910

 Al 
  0.4975769  0.0090540  0.5121628

 Al 
  0.5083127  0.2388991  0.7525184

 Al 
  0.7522524  0.0035741  0.7407591

 Al 
  0.7524863  0.2558957  0.4868707

 Al 
  0.5070170  0.5065640  0.4833238

 Al 
  0.4935882  0.7505074  0.7554973

 Al 
  0.7530642  0.4973776  0.7482476

 Al 
  0.7377320  0.7420808  0.5057955

