32 
charge = 0 
 Al 
  0.9690065  0.0060207  0.9985607

 Al 
  0.0193171  0.2466474  0.2572719

 Al 
  0.2551916  0.0071197  0.2518972

 Al 
  0.2430399  0.2627964  0.9910227

 Al 
  0.5260569  0.9863893  0.0076320

 Al 
  0.4761274  0.2611306  0.2562584

 Al 
  0.7372952  0.0189520  0.2529887

 Al 
  0.7253020  0.2499208  0.9954037

 Al 
  0.9946810  0.4892654  0.0034305

 Al 
  0.9885426  0.7462415  0.2602829

 Al 
  0.2457787  0.5150797  0.2392815

 Al 
  0.2321741  0.7763923  0.0174830

 Al 
  0.0040060  0.9874437  0.5181204

 Al 
  0.0099116  0.2484134  0.7452539

 Al 
  0.2569155  0.9893557  0.7552213

 Al 
  0.2670177  0.2668915  0.5092817

 Al 
  0.0044527  0.4830627  0.4970967

 Al 
  0.9985298  0.7238454  0.7485323

 Al 
  0.2680313  0.4970905  0.7444409

 Al 
  0.2624610  0.7496535  0.4834662

 Al 
  0.5062076  0.4967143  0.9934285

 Al 
  0.5020197  0.7544466  0.2404275

 Al 
  0.7440213  0.5062683  0.2510160

 Al 
  0.7555604  0.7292523  0.9972836

 Al 
  0.4992884  0.0104339  0.5093956

 Al 
  0.5081147  0.2383323  0.7522029

 Al 
  0.7528810  0.0042015  0.7444322

 Al 
  0.7539429  0.2535011  0.4889077

 Al 
  0.5080813  0.5078140  0.4810863

 Al 
  0.4948889  0.7503911  0.7530902

 Al 
  0.7538154  0.4950386  0.7521670

 Al 
  0.7373385  0.7418940  0.5036335

