32 
charge = 0 
 Al 
  0.9685449  0.0059552  0.9974729

 Al 
  0.0188184  0.2468430  0.2577261

 Al 
  0.2556519  0.0065504  0.2514071

 Al 
  0.2431365  0.2628843  0.9904188

 Al 
  0.5261039  0.9872655  0.0070256

 Al 
  0.4761633  0.2618076  0.2566098

 Al 
  0.7369140  0.0188468  0.2532164

 Al 
  0.7255507  0.2500990  0.9956475

 Al 
  0.9946389  0.4899869  0.0035246

 Al 
  0.9885414  0.7462366  0.2607829

 Al 
  0.2461351  0.5148124  0.2393953

 Al 
  0.2326469  0.7761584  0.0171724

 Al 
  0.0040741  0.9873831  0.5176167

 Al 
  0.0097928  0.2483194  0.7460386

 Al 
  0.2563784  0.9885030  0.7553166

 Al 
  0.2673630  0.2672863  0.5091939

 Al 
  0.0040753  0.4827434  0.4971029

 Al 
  0.9981350  0.7243701  0.7485236

 Al 
  0.2672677  0.4969333  0.7446475

 Al 
  0.2627754  0.7493961  0.4837038

 Al 
  0.5061321  0.4967935  0.9936723

 Al 
  0.5022759  0.7542931  0.2403495

 Al 
  0.7435758  0.5063153  0.2513997

 Al 
  0.7558475  0.7291124  0.9971784

 Al 
  0.4996188  0.0106381  0.5088152

 Al 
  0.5080392  0.2382828  0.7521274

 Al 
  0.7529825  0.0042696  0.7451116

 Al 
  0.7541879  0.2530555  0.4893161

 Al 
  0.5082434  0.5080120  0.4807720

 Al 
  0.4951562  0.7503527  0.7526496

 Al 
  0.7539082  0.4945758  0.7528315

 Al 
  0.7373224  0.7419175  0.5032300

