32 
charge = 0 
 Al 
  0.9672343  0.0057287  0.9941104

 Al 
  0.0171526  0.2474283  0.2591369

 Al 
  0.2570690  0.0048017  0.2499035

 Al 
  0.2435263  0.2630315  0.9885785

 Al 
  0.5260358  0.9900908  0.0049812

 Al 
  0.4764517  0.2638867  0.2575900

 Al 
  0.7358076  0.0184285  0.2540307

 Al 
  0.7265210  0.2507165  0.9965385

 Al 
  0.9945411  0.4922677  0.0038154

 Al 
  0.9885327  0.7462923  0.2623595

 Al 
  0.2472613  0.5139003  0.2397728

 Al 
  0.2341926  0.7752686  0.0160462

 Al 
  0.0042943  0.9872308  0.5158841

 Al 
  0.0093622  0.2480187  0.7485483

 Al 
  0.2546359  0.9858769  0.7556359

 Al 
  0.2683432  0.2684125  0.5088684

 Al 
  0.0028699  0.4818734  0.4971202

 Al 
  0.9969704  0.7261249  0.7484951

 Al 
  0.2647963  0.4965447  0.7453381

 Al 
  0.2637221  0.7485855  0.4845874

 Al 
  0.5057745  0.4971214  0.9944582

 Al 
  0.5031088  0.7538067  0.2401453

 Al 
  0.7422417  0.5063499  0.2525630

 Al 
  0.7567113  0.7288154  0.9968294

 Al 
  0.5006807  0.0111975  0.5068685

 Al 
  0.5077372  0.2382209  0.7518638

 Al 
  0.7532684  0.0044020  0.7472378

 Al 
  0.7549181  0.2516398  0.4906663

 Al 
  0.5086926  0.5085788  0.4799775

 Al 
  0.4960522  0.7501955  0.7512648

 Al 
  0.7541248  0.4930622  0.7548228

 Al 
  0.7373707  0.7421006  0.5019628

