32 
charge = 0 
 Al 
  0.9660821  0.0054416  0.9907010

 Al 
  0.0152703  0.2479840  0.2605713

 Al 
  0.2585169  0.0030370  0.2483726

 Al 
  0.2440634  0.2629895  0.9867568

 Al 
  0.5256336  0.9931451  0.0026372

 Al 
  0.4770209  0.2659732  0.2584179

 Al 
  0.7347866  0.0178543  0.2550109

 Al 
  0.7278216  0.2514653  0.9976660

 Al 
  0.9945102  0.4946822  0.0041186

 Al 
  0.9885241  0.7464569  0.2640104

 Al 
  0.2484345  0.5128360  0.2401973

 Al 
  0.2358967  0.7740892  0.0146354

 Al 
  0.0045369  0.9871355  0.5138496

 Al 
  0.0088164  0.2476994  0.7512289

 Al 
  0.2527301  0.9832026  0.7559836

 Al 
  0.2691995  0.2694198  0.5084600

 Al 
  0.0015791  0.4811643  0.4971623

 Al 
  0.9958529  0.7281224  0.7484555

 Al 
  0.2620922  0.4963145  0.7461264

 Al 
  0.2646503  0.7477340  0.4857123

 Al 
  0.5052163  0.4975892  0.9952960

 Al 
  0.5040196  0.7533154  0.2399708

 Al 
  0.7409621  0.5062051  0.2537090

 Al 
  0.7575417  0.7287251  0.9964371

 Al 
  0.5018229  0.0116578  0.5046582

 Al 
  0.5073239  0.2383038  0.7515432

 Al 
  0.7534998  0.0044107  0.7494134

 Al 
  0.7556284  0.2501299  0.4921996

 Al 
  0.5090701  0.5090924  0.4794651

 Al 
  0.4970831  0.7499691  0.7498181

 Al 
  0.7542337  0.4913890  0.7567658

 Al 
  0.7375786  0.7424657  0.5006472

