32 
charge = 0 
 Al 
  0.9676575  0.0058104  0.9952440

 Al 
  0.0177343  0.2472340  0.2586605

 Al 
  0.2565913  0.0053896  0.2504096

 Al 
  0.2433790  0.2630018  0.9891936

 Al 
  0.5260940  0.9891194  0.0056990

 Al 
  0.4763254  0.2631887  0.2572769

 Al 
  0.7361690  0.0185857  0.2537387

 Al 
  0.7261596  0.2504963  0.9962155

 Al 
  0.9945671  0.4914893  0.0037176

 Al 
  0.9885365  0.7462613  0.2618224

 Al 
  0.2468776  0.5142221  0.2396404

 Al 
  0.2336580  0.7755965  0.0164546

 Al 
  0.0042176  0.9872754  0.5164979

 Al 
  0.0095193  0.2481214  0.7476882

 Al 
  0.2552374  0.9867618  0.7555257

 Al 
  0.2680276  0.2680486  0.5089859

 Al 
  0.0032833  0.4821482  0.4971128

 Al 
  0.9973553  0.7255099  0.7485050

 Al 
  0.2656490  0.4966586  0.7450955

 Al 
  0.2634065  0.7488614  0.4842656

 Al 
  0.5059155  0.4969964  0.9941884

 Al 
  0.5028204  0.7539713  0.2402084

 Al 
  0.7426848  0.5063574  0.2521744

 Al 
  0.7564254  0.7288934  0.9969519

 Al 
  0.5003156  0.0110205  0.5075504

 Al 
  0.5078511  0.2382258  0.7519578

 Al 
  0.7531768  0.0043711  0.7465175

 Al 
  0.7546755  0.2521237  0.4901948

 Al 
  0.5085503  0.5083944  0.4802151

 Al 
  0.4957378  0.7502549  0.7517363

 Al 
  0.7540642  0.4935870  0.7541607

 Al 
  0.7373385  0.7420202  0.5023934

