32 
charge = 0 
 Al 
  0.9699532  0.0061371  0.0006720

 Al 
  0.0202280  0.2462626  0.2563970

 Al 
  0.2542956  0.0082261  0.2528563

 Al 
  0.2428952  0.2625699  0.9922046

 Al 
  0.5258651  0.9847396  0.0087298

 Al 
  0.4761410  0.2598089  0.2555257

 Al 
  0.7380674  0.0191117  0.2526026

 Al 
  0.7249121  0.2496027  0.9949903

 Al 
  0.9947750  0.4878855  0.0032387

 Al 
  0.9885365  0.7462861  0.2593275

 Al 
  0.2451017  0.5155562  0.2390736

 Al 
  0.2312942  0.7767722  0.0180053

 Al 
  0.0038835  0.9875761  0.5190189

 Al 
  0.0101109  0.2485917  0.7437701

 Al 
  0.2579204  0.9910227  0.7550493

 Al 
  0.2663074  0.2660759  0.5094265

 Al 
  0.0051705  0.4837421  0.4970818

 Al 
  0.9993280  0.7228887  0.7485508

 Al 
  0.2694631  0.4974407  0.7440622

 Al 
  0.2618373  0.7501485  0.4830726

 Al 
  0.5062980  0.4966017  0.9929756

 Al 
  0.5015420  0.7547349  0.2406007

 Al 
  0.7449037  0.5061247  0.2502624

 Al 
  0.7549899  0.7295827  0.9974754

 Al 
  0.4986659  0.0100032  0.5104512

 Al 
  0.5082286  0.2384721  0.7523340

 Al 
  0.7526744  0.0040307  0.7431278

 Al 
  0.7534553  0.2543513  0.4881541

 Al 
  0.5077434  0.5074093  0.4817707

 Al 
  0.4944013  0.7504492  0.7539392

 Al 
  0.7536001  0.4959000  0.7508477

 Al 
  0.7374165  0.7418964  0.5044032

