32 
charge = 0 
 Al 
  0.9649411  0.0049527  0.9864029

 Al 
  0.0125501  0.2486164  0.2623793

 Al 
  0.2603980  0.0008057  0.2463826

 Al 
  0.2449903  0.2626132  0.9845342

 Al 
  0.5245693  0.9973430  0.9992278

 Al 
  0.4782028  0.2685820  0.2591889

 Al 
  0.7336592  0.0168680  0.2564576

 Al 
  0.7300022  0.2526471  0.9994926

 Al 
  0.9946216  0.4979494  0.0045542

 Al 
  0.9885488  0.7468281  0.2661873

 Al 
  0.2499530  0.5112643  0.2408148

 Al 
  0.2382976  0.7721004  0.0124029

 Al 
  0.0048661  0.9871294  0.5108113

 Al 
  0.0079291  0.2472761  0.7548426

 Al 
  0.2500668  0.9797510  0.7564353

 Al 
  0.2700498  0.2705064  0.5078288

 Al 
  0.9998131  0.4805319  0.4972996

 Al 
  0.9944928  0.7310220  0.7483664

 Al 
  0.2582966  0.4963034  0.7472811

 Al 
  0.2657863  0.7465893  0.4875080

 Al 
  0.5041842  0.4984048  0.9964012

 Al 
  0.5052832  0.7527226  0.2397666

 Al 
  0.7394857  0.5057175  0.2551025

 Al 
  0.7585058  0.7289689  0.9958863

 Al 
  0.5033699  0.0120786  0.5014776

 Al 
  0.5066296  0.2386565  0.7510470

 Al 
  0.7536644  0.0042077  0.7521447

 Al 
  0.7564972  0.2480694  0.4944669

 Al 
  0.5094154  0.5096567  0.4793525

 Al 
  0.4986238  0.7495594  0.7478912

 Al 
  0.7541966  0.4890315  0.7591233

 Al 
  0.7381095  0.7432479  0.4989456

