32 
charge = 0 
 Al 
  0.9644807  0.0045010  0.9836196

 Al 
  0.0104735  0.2489691  0.2635451

 Al 
  0.2616875  0.9993280  0.2450015

 Al 
  0.2458133  0.2620947  0.9831456

 Al 
  0.5234073  0.0003911  0.9966338

 Al 
  0.4793587  0.2702663  0.2594674

 Al 
  0.7330565  0.0159992  0.2575293

 Al 
  0.7318759  0.2536335  0.0010396

 Al 
  0.9948431  0.5002933  0.0049007

 Al 
  0.9886169  0.7471920  0.2676872

 Al 
  0.2509641  0.5100552  0.2412937

 Al 
  0.2400871  0.7703542  0.0105713

 Al 
  0.0050975  0.9872284  0.5084389

 Al 
  0.0071717  0.2469902  0.7573895

 Al 
  0.2481028  0.9774095  0.7567150

 Al 
  0.2704173  0.2710806  0.5073313

 Al 
  0.9985323  0.4803314  0.4974915

 Al 
  0.9936117  0.7332286  0.7482550

 Al 
  0.2554700  0.4965361  0.7481721

 Al 
  0.2665004  0.7457688  0.4889857

 Al 
  0.5032375  0.4991189  0.9971499

 Al 
  0.5062014  0.7523712  0.2396193

 Al 
  0.7386540  0.5051483  0.2559675

 Al 
  0.7590552  0.7294268  0.9954903

 Al 
  0.5044577  0.0122296  0.4990953

 Al 
  0.5060356  0.2390958  0.7506349

 Al 
  0.7536310  0.0039020  0.7538674

 Al 
  0.7570591  0.2465769  0.4962650

 Al 
  0.5095329  0.5099686  0.4797510

 Al 
  0.4998465  0.7491882  0.7465323

 Al 
  0.7540357  0.4872878  0.7606047

 Al 
  0.7386837  0.7440337  0.4978070

