32 
charge = 0 
 Al 
  0.9644052  0.0039788  0.9813759

 Al 
  0.0084476  0.2492018  0.2644770

 Al 
  0.2628236  0.9980744  0.2437577

 Al 
  0.2467192  0.2613955  0.9820652

 Al 
  0.5219828  0.0032263  0.9941414

 Al 
  0.4806940  0.2716326  0.2594760

 Al 
  0.7326989  0.0150549  0.2584934

 Al 
  0.7338671  0.2546681  0.0026843

 Al 
  0.9951834  0.5024528  0.0052646

 Al 
  0.9887407  0.7475967  0.2689941

 Al 
  0.2518093  0.5088857  0.2417690

 Al 
  0.2417950  0.7684483  0.0087001

 Al 
  0.0053079  0.9874214  0.5061049

 Al 
  0.0063623  0.2467514  0.7596666

 Al 
  0.2462564  0.9753824  0.7569118

 Al 
  0.2705411  0.2714333  0.5068499

 Al 
  0.9973368  0.4803797  0.4977761

 Al 
  0.9928630  0.7353534  0.7480929

 Al 
  0.2527721  0.4969680  0.7490496

 Al 
  0.2670623  0.7450139  0.4904980

 Al 
  0.5021892  0.4998861  0.9977823

 Al 
  0.5070492  0.7521199  0.2394708

 Al 
  0.7381144  0.5044367  0.2566370

 Al 
  0.7594179  0.7300988  0.9951364

 Al 
  0.5054168  0.0122370  0.4968479

 Al 
  0.5054069  0.2396688  0.7501980

 Al 
  0.7534330  0.0034800  0.7551866

 Al 
  0.7575256  0.2451908  0.4980929

 Al 
  0.5095292  0.5101790  0.4805653

 Al 
  0.5010853  0.7487785  0.7453035

 Al 
  0.7537783  0.4856517  0.7617804

 Al 
  0.7393817  0.7449520  0.4968492

