32 
charge = 0 
 Al 
  0.9643867  0.0041607  0.9820591

 Al 
  0.0091146  0.2491387  0.2641948

 Al 
  0.2624635  0.9984654  0.2441562

 Al 
  0.2464086  0.2616467  0.9823895

 Al 
  0.5224840  0.0023093  0.9949557

 Al 
  0.4802324  0.2712143  0.2595020

 Al 
  0.7327905  0.0153767  0.2581877

 Al 
  0.7331939  0.2543203  0.0021274

 Al 
  0.9950572  0.5017561  0.0051408

 Al 
  0.9886924  0.7474593  0.2685832

 Al 
  0.2515482  0.5092693  0.2416118

 Al 
  0.2412368  0.7690993  0.0093238

 Al 
  0.0052411  0.9873459  0.5068734

 Al 
  0.0066370  0.2468244  0.7589426

 Al 
  0.2468554  0.9760198  0.7568573

 Al 
  0.2705274  0.2713405  0.5070071

 Al 
  0.9977241  0.4803364  0.4976697

 Al 
  0.9930981  0.7346592  0.7481536

 Al 
  0.2536533  0.4968034  0.7487600

 Al 
  0.2668927  0.7452577  0.4899931

 Al 
  0.5025481  0.4996263  0.9975855

 Al 
  0.5067757  0.7521930  0.2395203

 Al 
  0.7382605  0.5046866  0.2564366

 Al 
  0.7593188  0.7298525  0.9952490

 Al 
  0.5051136  0.0122494  0.4975769

 Al 
  0.5056185  0.2394646  0.7503465

 Al 
  0.7535184  0.0036322  0.7547968

 Al 
  0.7573808  0.2456388  0.4974828

 Al 
  0.5095441  0.5101195  0.4802485

 Al 
  0.5006732  0.7489184  0.7456970

 Al 
  0.7538736  0.4861814  0.7614239

 Al 
  0.7391367  0.7446339  0.4971462

