32 
charge = 0 
 Al 
  0.9644114  0.0043352  0.9828078

 Al 
  0.0097891  0.2490607  0.2638830

 Al 
  0.2620848  0.9988837  0.2445708

 Al 
  0.2461066  0.2618806  0.9827496

 Al 
  0.5229593  0.0013638  0.9957873

 Al 
  0.4797869  0.2707589  0.2594995

 Al 
  0.7329093  0.0156911  0.2578659

 Al 
  0.7325306  0.2539751  0.0015791

 Al 
  0.9949433  0.5010358  0.0050208

 Al 
  0.9886516  0.7473244  0.2681464

 Al 
  0.2512660  0.5096592  0.2414522

 Al 
  0.2406675  0.7697354  0.0099488

 Al 
  0.0051705  0.9872816  0.5076531

 Al 
  0.0069068  0.2469049  0.7581815

 Al 
  0.2474717  0.9766955  0.7567917

 Al 
  0.2704854  0.2712230  0.5071680

 Al 
  0.9981239  0.4803203  0.4975756

 Al 
  0.9933481  0.7339501  0.7482080

 Al 
  0.2545530  0.4966586  0.7484679

 Al 
  0.2667059  0.7455089  0.4894881

 Al 
  0.5028971  0.4993701  0.9973751

 Al 
  0.5064923  0.7522759  0.2395711

 Al 
  0.7384412  0.5049243  0.2562138

 Al 
  0.7591976  0.7296285  0.9953666

 Al 
  0.5047943  0.0122469  0.4983268

 Al 
  0.5058289  0.2392728  0.7504913

 Al 
  0.7535852  0.0037733  0.7543562

 Al 
  0.7572249  0.2461004  0.4968739

 Al 
  0.5095453  0.5100490  0.4799775

 Al 
  0.5002599  0.7490557  0.7461066

 Al 
  0.7539602  0.4867271  0.7610316

 Al 
  0.7389040  0.7443270  0.4974655

