32 
charge = 0 
 Al 
  0.9665116  0.0019665  0.9782548

 Al 
  0.0029083  0.2492154  0.2657170

 Al 
  0.2652121  0.9956772  0.2408173

 Al 
  0.2498255  0.2583696  0.9807213

 Al 
  0.5164868  0.0101653  0.9877741

 Al 
  0.4854772  0.2736882  0.2580565

 Al 
  0.7331320  0.0119338  0.2602483

 Al 
  0.7401676  0.2578387  0.0079662

 Al 
  0.9968516  0.5076543  0.0064650

 Al 
  0.9895277  0.7488367  0.2714816

 Al 
  0.2532362  0.5058673  0.2431451

 Al 
  0.2463170  0.7619932  0.0032758

 Al 
  0.0058153  0.9886020  0.4997686

 Al 
  0.0037040  0.2464086  0.7645711

 Al 
  0.2417021  0.9714160  0.7568103

 Al 
  0.2695733  0.2711920  0.5056185

 Al 
  0.9942985  0.4819440  0.4992562

 Al 
  0.9912579  0.7408061  0.7472167

 Al 
  0.2457688  0.4993008  0.7514739

 Al 
  0.2677813  0.7431860  0.4949025

 Al 
  0.4986882  0.5023427  0.9988553

 Al 
  0.5090565  0.7519343  0.2389597

 Al 
  0.7382828  0.5017351  0.2575083

 Al 
  0.7593176  0.7331815  0.9944483

 Al 
  0.5072286  0.0114846  0.4914423

 Al 
  0.5034627  0.2420920  0.7487290

 Al 
  0.7517425  0.0016645  0.7564403

 Al 
  0.7583758  0.2418247  0.5036112

 Al 
  0.5089414  0.5102643  0.4852520

 Al 
  0.5047423  0.7474432  0.7425276

 Al 
  0.7525791  0.4817286  0.7635018

 Al 
  0.7420264  0.7482402  0.4951846

