32 
charge = 0 
 Al 
  0.9647258  0.0033847  0.9797349

 Al 
  0.0065133  0.2493144  0.2651502

 Al 
  0.2637877  0.9970583  0.2426575

 Al 
  0.2476932  0.2605341  0.9813079

 Al 
  0.5203406  0.0057955  0.9918234

 Al 
  0.4821692  0.2726536  0.2592273

 Al 
  0.7325937  0.0140587  0.2592904

 Al 
  0.7359240  0.2557237  0.0043921

 Al 
  0.9956388  0.5043946  0.0056445

 Al 
  0.9889288  0.7480174  0.2700696

 Al 
  0.2524677  0.5077917  0.2422343

 Al 
  0.2433964  0.7664163  0.0068462

 Al 
  0.0054935  0.9877110  0.5038699

 Al 
  0.0055146  0.2465732  0.7616232

 Al 
  0.2445683  0.9737092  0.7570009

 Al 
  0.2704309  0.2715633  0.5064007

 Al 
  0.9962403  0.4806705  0.4981622

 Al 
  0.9922380  0.7373348  0.7478702

 Al 
  0.2502574  0.4975830  0.7498923

 Al 
  0.2674608  0.7443320  0.4919992

 Al 
  0.5010717  0.5006844  0.9982798

 Al 
  0.5078090  0.7519702  0.2393124

 Al 
  0.7378781  0.5036149  0.2571061

 Al 
  0.7595812  0.7309601  0.9948418

 Al 
  0.5062076  0.0121083  0.4948097

 Al 
  0.5047646  0.2403631  0.7497389

 Al 
  0.7530555  0.0029578  0.7560529

 Al 
  0.7578956  0.2439372  0.4999257

 Al 
  0.5094166  0.5102940  0.4817732

 Al 
  0.5023167  0.7483454  0.7442268

 Al 
  0.7534392  0.4841703  0.7626417

 Al 
  0.7401812  0.7459730  0.4960930

