32 
charge = 0 
 Al 
  0.9669534  0.0016979  0.9782313

 Al 
  0.0023340  0.2491622  0.2657133

 Al 
  0.2653891  0.9955213  0.2405463

 Al 
  0.2502054  0.2579513  0.9807361

 Al 
  0.5157740  0.0108076  0.9871714

 Al 
  0.4860749  0.2737377  0.2577830

 Al 
  0.7333177  0.0115613  0.2603163

 Al 
  0.7408953  0.2581890  0.0085837

 Al 
  0.9970893  0.5081283  0.0066111

 Al 
  0.9896602  0.7489642  0.2716202

 Al 
  0.2532981  0.5055789  0.2432986

 Al 
  0.2467786  0.7612049  0.0026991

 Al 
  0.0058648  0.9887963  0.4991300

 Al 
  0.0033835  0.2464061  0.7649485

 Al 
  0.2412863  0.9711636  0.7567262

 Al 
  0.2693518  0.2710522  0.5055010

 Al 
  0.9939978  0.4822435  0.4994815

 Al 
  0.9911168  0.7413247  0.7470781

 Al 
  0.2450807  0.4996448  0.7517264

 Al 
  0.2677751  0.7430201  0.4953728

 Al 
  0.4982748  0.5026273  0.9988973

 Al 
  0.5092322  0.7519566  0.2388966

 Al 
  0.7384573  0.5013984  0.2575170

 Al 
  0.7591976  0.7336134  0.9944087

 Al 
  0.5073239  0.0113361  0.4909720

 Al 
  0.5032449  0.2424261  0.7485446

 Al 
  0.7514517  0.0014195  0.7563400

 Al 
  0.7584266  0.2415190  0.5042349

 Al 
  0.5088387  0.5102272  0.4859599

 Al 
  0.5051458  0.7472910  0.7422999

 Al 
  0.7524170  0.4813883  0.7635451

 Al 
  0.7423642  0.7486424  0.4951054

