32 
charge = 0 
 Al 
  0.9726660  0.9988330  0.9806383

 Al 
  0.9973863  0.2483219  0.2645414

 Al 
  0.2662133  0.9949050  0.2383781

 Al 
  0.2538872  0.2534627  0.9821432

 Al 
  0.5085033  0.0156911  0.9825566

 Al 
  0.4920969  0.2727377  0.2545270

 Al 
  0.7362383  0.0079464  0.2596431

 Al 
  0.7477687  0.2612309  0.0143978

 Al 
  0.9995928  0.5116888  0.0080479

 Al 
  0.9913346  0.7499332  0.2715880

 Al 
  0.2531224  0.5033179  0.2448493

 Al 
  0.2508279  0.7533798  0.9976684

 Al 
  0.0063586  0.9912331  0.4938926

 Al 
  0.0002252  0.2466710  0.7670796

 Al 
  0.2382654  0.9704866  0.7552485

 Al 
  0.2663618  0.2687825  0.5045282

 Al 
  0.9914447  0.4860069  0.5020729

 Al 
  0.9899225  0.7453035  0.7454421

 Al 
  0.2394436  0.5033600  0.7539342

 Al 
  0.2669831  0.7417801  0.4994307

 Al 
  0.4943877  0.5053017  0.9986152

 Al 
  0.5104265  0.7523662  0.2383162

 Al 
  0.7412913  0.4982290  0.2571110

 Al 
  0.7571964  0.7382481  0.9943716

 Al 
  0.5071605  0.0094636  0.4878335

 Al 
  0.5012574  0.2460794  0.7465979

 Al 
  0.7480174  0.9988837  0.7536595

 Al 
  0.7585305  0.2392691  0.5100379

 Al 
  0.5077843  0.5094451  0.4937837

 Al 
  0.5087941  0.7459433  0.7409472

 Al 
  0.7507450  0.4792164  0.7628806

 Al 
  0.7457663  0.7524838  0.4952379

