32 
charge = 0 
 Al 
  0.9734766  0.9984691  0.9811717

 Al 
  0.9968653  0.2481993  0.2642951

 Al 
  0.2662170  0.9949149  0.2381602

 Al 
  0.2543117  0.2528922  0.9824291

 Al 
  0.5076184  0.0161378  0.9821308

 Al 
  0.4928308  0.2724778  0.2540976

 Al 
  0.7366974  0.0075182  0.2594216

 Al 
  0.7485620  0.2615440  0.0150525

 Al 
  0.9998985  0.5120118  0.0082162

 Al 
  0.9915771  0.7500136  0.2714383

 Al 
  0.2530308  0.5031001  0.2450498

 Al 
  0.2512747  0.7524429  0.9971313

 Al 
  0.0064229  0.9915846  0.4933729

 Al 
  0.9998478  0.2467279  0.7671897

 Al 
  0.2380117  0.9705869  0.7550035

 Al 
  0.2659200  0.2684211  0.5044218

 Al 
  0.9911737  0.4865353  0.5024170

 Al 
  0.9897852  0.7456710  0.7452205

 Al 
  0.2388743  0.5038216  0.7541706

 Al 
  0.2668148  0.7416700  0.4998527

 Al 
  0.4939508  0.5056062  0.9985124

 Al 
  0.5105168  0.7524231  0.2382580

 Al 
  0.7417306  0.4978825  0.2570343

 Al 
  0.7568759  0.7388359  0.9944025

 Al 
  0.5070269  0.0092000  0.4876046

 Al 
  0.5010358  0.2465546  0.7463504

 Al 
  0.7475645  0.9985731  0.7531979

 Al 
  0.7585045  0.2390748  0.5106938

 Al 
  0.5076655  0.5093052  0.4947824

 Al 
  0.5091976  0.7458034  0.7408767

 Al 
  0.7505433  0.4790815  0.7627098

 Al 
  0.7461772  0.7529206  0.4953356

