32 
charge = 0 
 Al 
  0.9697527  0.0002042  0.9790109

 Al 
  0.9995384  0.2487649  0.2653086

 Al 
  0.2660178  0.9950151  0.2392914

 Al 
  0.2522029  0.2556148  0.9812460

 Al 
  0.5119128  0.0137097  0.9844352

 Al 
  0.4892802  0.2734926  0.2561309

 Al 
  0.7346641  0.0096109  0.2602371

 Al 
  0.7446414  0.2599141  0.0117705

 Al 
  0.9984097  0.5102532  0.0073858

 Al 
  0.9904782  0.7495520  0.2718925

 Al 
  0.2533538  0.5042547  0.2441117

 Al 
  0.2490384  0.7570133  0.9998676

 Al 
  0.0061235  0.9899881  0.4961066

 Al 
  0.0016905  0.2464927  0.7663952

 Al 
  0.2394485  0.9704346  0.7560690

 Al 
  0.2679137  0.2700126  0.5049490

 Al 
  0.9925548  0.4841023  0.5008007

 Al 
  0.9904522  0.7436822  0.7462539

 Al 
  0.2418358  0.5015890  0.7529664

 Al 
  0.2674991  0.7422751  0.4976721

 Al 
  0.4961413  0.5040914  0.9988874

 Al 
  0.5099785  0.7521496  0.2385699

 Al 
  0.7397641  0.4996498  0.2573759

 Al 
  0.7582880  0.7360279  0.9943171

 Al 
  0.5074613  0.0104116  0.4889894

 Al 
  0.5021447  0.2443097  0.7475298

 Al 
  0.7497104  0.0000780  0.7552139

 Al 
  0.7585590  0.2401589  0.5074204

 Al 
  0.5082682  0.5098968  0.4900116

 Al 
  0.5071692  0.7465311  0.7413915

 Al 
  0.7515272  0.4799787  0.7633904

 Al 
  0.7441773  0.7507388  0.4950027

