32 
charge = 0 
 Al 
  0.9674348  0.0014195  0.9782696

 Al 
  0.0017660  0.2490991  0.2656849

 Al 
  0.2655487  0.9953851  0.2402827

 Al 
  0.2505916  0.2575170  0.9807794

 Al 
  0.5150413  0.0114277  0.9865885

 Al 
  0.4866875  0.2737538  0.2574897

 Al 
  0.7335305  0.0111839  0.2603584

 Al 
  0.7416291  0.2585379  0.0092075

 Al 
  0.9973355  0.5085850  0.0067608

 Al 
  0.9898025  0.7490904  0.2717316

 Al 
  0.2533427  0.5052980  0.2434545

 Al 
  0.2472353  0.7604005  0.0021249

 Al 
  0.0059155  0.9890043  0.4985025

 Al 
  0.0030580  0.2464098  0.7652938

 Al 
  0.2408866  0.9709470  0.7566271

 Al 
  0.2691092  0.2708888  0.5053859

 Al 
  0.9937033  0.4825665  0.4997203

 Al 
  0.9909794  0.7418271  0.7469308

 Al 
  0.2444062  0.5000050  0.7519776

 Al 
  0.2677528  0.7428593  0.4958393

 Al 
  0.4978565  0.5029145  0.9989258

 Al 
  0.5093980  0.7519851  0.2388322

 Al 
  0.7386627  0.5010569  0.2575120

 Al 
  0.7590577  0.7340614  0.9943765

 Al 
  0.5073957  0.0111752  0.4905265

 Al 
  0.5030258  0.2427739  0.7483540

 Al 
  0.7511410  0.0011670  0.7561965

 Al 
  0.7584686  0.2412244  0.5048624

 Al 
  0.5087310  0.5101802  0.4867036

 Al 
  0.5055480  0.7471388  0.7420883

 Al 
  0.7522487  0.4810678  0.7635624

 Al 
  0.7427108  0.7490508  0.4950473

