32 
charge = 0 
 Al 
  0.9685164  0.0008329  0.9785246

 Al 
  0.0006423  0.2489481  0.2655475

 Al 
  0.2658173  0.9951661  0.2397753

 Al 
  0.2513848  0.2565987  0.9809564

 Al 
  0.5135154  0.0126070  0.9854760

 Al 
  0.4879548  0.2736869  0.2568462

 Al 
  0.7340416  0.0104091  0.2603559

 Al 
  0.7431192  0.2592310  0.0104772

 Al 
  0.9978565  0.5094500  0.0070677

 Al 
  0.9901181  0.7493292  0.2718690

 Al 
  0.2533810  0.5047621  0.2437751

 Al 
  0.2481399  0.7587409  0.0009900

 Al 
  0.0060183  0.9894646  0.4972823

 Al 
  0.0023873  0.2464383  0.7659002

 Al 
  0.2401354  0.9706203  0.7563796

 Al 
  0.2685560  0.2704953  0.5051643

 Al 
  0.9931229  0.4832867  0.5002351

 Al 
  0.9907133  0.7427838  0.7466103

 Al 
  0.2430969  0.5007698  0.7524751

 Al 
  0.2676588  0.7425561  0.4967638

 Al 
  0.4970063  0.5034974  0.9989357

 Al 
  0.5097050  0.7520581  0.2387023

 Al 
  0.7391577  0.5003601  0.2574650

 Al 
  0.7587149  0.7350106  0.9943320

 Al 
  0.5074749  0.0108175  0.4897097

 Al 
  0.5025865  0.2435127  0.7479555

 Al 
  0.7504628  0.0006373  0.7557844

 Al 
  0.7585293  0.2406700  0.5061321

 Al 
  0.5085058  0.5100589  0.4882927

 Al 
  0.5063574  0.7468331  0.7417096

 Al 
  0.7518972  0.4804836  0.7635228

 Al 
  0.7434273  0.7498849  0.4949879

