32 
charge = 0 
 Al 
  0.9704284  0.9998750  0.9793377

 Al 
  0.9989914  0.2486622  0.2651515

 Al 
  0.2660933  0.9949644  0.2390562

 Al 
  0.2526199  0.2550975  0.9814316

 Al 
  0.5110836  0.0142332  0.9839389

 Al 
  0.4899646  0.2733479  0.2557497

 Al 
  0.7350168  0.0092025  0.2601332

 Al 
  0.7454136  0.2602507  0.0124239

 Al 
  0.9986968  0.5106331  0.0075479

 Al 
  0.9906750  0.7496547  0.2718603

 Al 
  0.2533179  0.5040109  0.2442862

 Al 
  0.2494864  0.7561259  0.9993119

 Al 
  0.0061791  0.9902740  0.4955349

 Al 
  0.0013329  0.2465286  0.7666031

 Al 
  0.2391280  0.9703950  0.7558883

 Al 
  0.2675585  0.2697379  0.5048438

 Al 
  0.9922751  0.4845453  0.5011014

 Al 
  0.9903223  0.7441092  0.7460633

 Al 
  0.2412207  0.5020172  0.7532102

 Al 
  0.2673939  0.7421440  0.4981201

 Al 
  0.4957044  0.5043921  0.9988416

 Al 
  0.5101035  0.7522016  0.2385043

 Al 
  0.7401082  0.4992934  0.2573189

 Al 
  0.7580442  0.7365601  0.9943208

 Al 
  0.5074217  0.0101913  0.4886639

 Al 
  0.5019232  0.2447305  0.7473071

 Al 
  0.7493082  0.9997884  0.7548735

 Al 
  0.7585639  0.2399201  0.5080714

 Al 
  0.5081469  0.5098003  0.4909151

 Al 
  0.5075764  0.7463814  0.7412566

 Al 
  0.7513366  0.4797560  0.7632927

 Al 
  0.7445646  0.7511720  0.4950374

