32 
charge = 0 
 Al 
  0.9751832  0.9977229  0.9823722

 Al 
  0.9958517  0.2479456  0.2637431

 Al 
  0.2661700  0.9949730  0.2377370

 Al 
  0.2551507  0.2517264  0.9830652

 Al 
  0.5058289  0.0169682  0.9813314

 Al 
  0.4943245  0.2718789  0.2532189

 Al 
  0.7376850  0.0066544  0.2588919

 Al 
  0.7501510  0.2621430  0.0163445

 Al 
  0.0005148  0.5126132  0.0085528

 Al 
  0.9920932  0.7501535  0.2710509

 Al 
  0.2528142  0.5026818  0.2454730

 Al 
  0.2521645  0.7505544  0.9960769

 Al 
  0.0065591  0.9923345  0.4923779

 Al 
  0.9990854  0.2468529  0.7673457

 Al 
  0.2375563  0.9708901  0.7544688

 Al 
  0.2649757  0.2676402  0.5042102

 Al 
  0.9906378  0.4876417  0.5031298

 Al 
  0.9895042  0.7463628  0.7447614

 Al 
  0.2377754  0.5047535  0.7546359

 Al 
  0.2664311  0.7414695  0.5006695

 Al 
  0.4930895  0.5062064  0.9982674

 Al 
  0.5106703  0.7525345  0.2381503

 Al 
  0.7426712  0.4972093  0.2568771

 Al 
  0.7561866  0.7400438  0.9944829

 Al 
  0.5066940  0.0086456  0.4872172

 Al 
  0.5005928  0.2475410  0.7458393

 Al 
  0.7466351  0.9979444  0.7522078

 Al 
  0.7584303  0.2387221  0.5119932

 Al 
  0.5074365  0.5089884  0.4968207

 Al 
  0.5099908  0.7455361  0.7407888

 Al 
  0.7501361  0.4788822  0.7623236

 Al 
  0.7470113  0.7537882  0.4955720

