32 
charge = 0 
 Al 
  0.9807646  0.9954136  0.9868138

 Al 
  0.9931513  0.2471771  0.2617408

 Al 
  0.2655908  0.9954099  0.2365935

 Al 
  0.2574538  0.2481857  0.9853732

 Al 
  0.5005235  0.0188827  0.9793921

 Al 
  0.4988577  0.2695721  0.2505656

 Al 
  0.7410846  0.0040642  0.2567212

 Al 
  0.7547782  0.2636367  0.0198604

 Al 
  0.0022907  0.5140364  0.0095119

 Al 
  0.9938481  0.7503985  0.2692466

 Al 
  0.2519578  0.5015779  0.2469061

 Al 
  0.2547436  0.7450275  0.9931773

 Al 
  0.0070380  0.9948740  0.4898421

 Al 
  0.9968343  0.2472836  0.7673482

 Al 
  0.2366343  0.9725571  0.7525679

 Al 
  0.2617457  0.2649139  0.5035654

 Al 
  0.9891379  0.4912232  0.5053723

 Al 
  0.9885971  0.7480645  0.7433221

 Al 
  0.2348460  0.5074328  0.7559044

 Al 
  0.2649609  0.7410314  0.5028056

 Al 
  0.4907307  0.5078610  0.9972736

 Al 
  0.5109116  0.7527981  0.2379474

 Al 
  0.7458133  0.4955101  0.2564836

 Al 
  0.7538241  0.7437726  0.9948740

 Al 
  0.5052163  0.0068227  0.4865972

 Al 
  0.4992995  0.2506646  0.7442528

 Al 
  0.7438345  0.9960782  0.7489493

 Al 
  0.7580429  0.2379771  0.5156156

 Al 
  0.5068561  0.5077830  0.5029751

 Al 
  0.5121727  0.7448852  0.7409386

 Al 
  0.7489468  0.4788736  0.7609450

 Al 
  0.7495075  0.7562101  0.4965150

