32 
charge = 0 
 Al 
  0.9817299  0.9950312  0.9876392

 Al 
  0.9927664  0.2470571  0.2613757

 Al 
  0.2654336  0.9955114  0.2364239

 Al 
  0.2577855  0.2476165  0.9857977

 Al 
  0.4996844  0.0191092  0.9791372

 Al 
  0.4995990  0.2691315  0.2501411

 Al 
  0.7416935  0.0036434  0.2562930

 Al 
  0.7555059  0.2638310  0.0203653

 Al 
  0.0025618  0.5142159  0.0096592

 Al 
  0.9941624  0.7504146  0.2688629

 Al 
  0.2517969  0.5014158  0.2471647

 Al 
  0.2551507  0.7441649  0.9927454

 Al 
  0.0071271  0.9953257  0.4894943

 Al 
  0.9964804  0.2473578  0.7672912

 Al 
  0.2365452  0.9729308  0.7522177

 Al 
  0.2611641  0.2644188  0.5034590

 Al 
  0.9889102  0.4918346  0.5057472

 Al 
  0.9884387  0.7482959  0.7430845

 Al 
  0.2344203  0.5078375  0.7560876

 Al 
  0.2646775  0.7409856  0.5031050

 Al 
  0.4903891  0.5080986  0.9970818

 Al 
  0.5109190  0.7528266  0.2379350

 Al 
  0.7463616  0.4952923  0.2564403

 Al 
  0.7534045  0.7443889  0.9949582

 Al 
  0.5049119  0.0065046  0.4865675

 Al 
  0.4990904  0.2511930  0.7439904

 Al 
  0.7433902  0.9957811  0.7483998

 Al 
  0.7579575  0.2379004  0.5161539

 Al 
  0.5067781  0.5075479  0.5039639

 Al 
  0.5124920  0.7448047  0.7410215

 Al 
  0.7487624  0.4789602  0.7607012

 Al 
  0.7499097  0.7565715  0.4966932

