32 
charge = 0 
 Al 
  0.9743169  0.9980991  0.9817497

 Al 
  0.9963529  0.2480731  0.2640278

 Al 
  0.2662034  0.9949371  0.2379461

 Al 
  0.2547337  0.2523130  0.9827372

 Al 
  0.5067262  0.0165635  0.9817224

 Al 
  0.4935733  0.2721907  0.2536619

 Al 
  0.7371801  0.0070875  0.2591703

 Al 
  0.7493565  0.2618484  0.0157022

 Al 
  0.0002067  0.5123212  0.0083845

 Al 
  0.9918296  0.7500866  0.2712588

 Al 
  0.2529281  0.5028885  0.2452577

 Al 
  0.2517202  0.7514999  0.9966004

 Al 
  0.0064898  0.9919521  0.4928679

 Al 
  0.9994666  0.2467885  0.7672788

 Al 
  0.2377754  0.9707217  0.7547436

 Al 
  0.2654584  0.2680399  0.5043166

 Al 
  0.9909039  0.4870798  0.5027697

 Al 
  0.9896466  0.7460249  0.7449928

 Al 
  0.2383186  0.5042869  0.7544057

 Al 
  0.2666304  0.7415672  0.5002661

 Al 
  0.4935176  0.5059069  0.9983961

 Al 
  0.5105985  0.7524788  0.2382023

 Al 
  0.7421922  0.4975410  0.2569563

 Al 
  0.7565393  0.7394349  0.9944396

 Al 
  0.5068722  0.0089278  0.4873991

 Al 
  0.5008143  0.2470422  0.7460967

 Al 
  0.7471029  0.9982600  0.7527127

 Al 
  0.7584711  0.2388929  0.5113460

 Al 
  0.5075491  0.5091530  0.4957960

 Al 
  0.5095961  0.7456673  0.7408247

 Al 
  0.7503391  0.4789701  0.7625229

 Al 
  0.7465930  0.7533563  0.4954470

