32 
charge = 0 
 Al 
  0.9788525  0.9961846  0.9852223

 Al 
  0.9939817  0.2474271  0.2624511

 Al 
  0.2658557  0.9952280  0.2369524

 Al 
  0.2567385  0.2493515  0.9845515

 Al 
  0.5022536  0.0183481  0.9799602

 Al 
  0.4973553  0.2704124  0.2514380

 Al 
  0.7398953  0.0049181  0.2575293

 Al 
  0.7532783  0.2631974  0.0187713

 Al 
  0.0017227  0.5136280  0.0092062

 Al 
  0.9932342  0.7503465  0.2699470

 Al 
  0.2522697  0.5019207  0.2464036

 Al 
  0.2539057  0.7468158  0.9940894

 Al 
  0.0068685  0.9939904  0.4906057

 Al 
  0.9975670  0.2471350  0.7674162

 Al 
  0.2368657  0.9718851  0.7532437

 Al 
  0.2628781  0.2658742  0.5037808

 Al 
  0.9896156  0.4900042  0.5046186

 Al 
  0.9889090  0.7475583  0.7438023

 Al 
  0.2357544  0.5065789  0.7555109

 Al 
  0.2654992  0.7411477  0.5021546

 Al 
  0.4914658  0.5073462  0.9976400

 Al 
  0.5108683  0.7527264  0.2379919

 Al 
  0.7447292  0.4960101  0.2565925

 Al 
  0.7546483  0.7425276  0.9947218

 Al 
  0.5057807  0.0074501  0.4867172

 Al 
  0.4997240  0.2496077  0.7447824

 Al 
  0.7447515  0.9966870  0.7500557

 Al 
  0.7581976  0.2381701  0.5144745

 Al 
  0.5070281  0.5082248  0.5009517

 Al 
  0.5114908  0.7450720  0.7408210

 Al 
  0.7493317  0.4787758  0.7614264

 Al 
  0.7486869  0.7554453  0.4961722

