32 
charge = 0 
 Al 
  0.9884795  0.9924608  0.9937218

 Al 
  0.9907269  0.2463727  0.2587780

 Al 
  0.2639263  0.9963220  0.2354030

 Al 
  0.2595255  0.2440845  0.9889263

 Al 
  0.4944681  0.0198691  0.9779132

 Al 
  0.5044688  0.2657678  0.2474333

 Al 
  0.7460485  0.0008564  0.2529516

 Al 
  0.7600515  0.2646973  0.0230298

 Al 
  0.0041347  0.5150228  0.0105589

 Al 
  0.9964643  0.7503539  0.2656787

 Al 
  0.2506163  0.5004146  0.2490644

 Al 
  0.2577187  0.7389968  0.9902554

 Al 
  0.0078016  0.9985360  0.4876900

 Al 
  0.9942899  0.2478330  0.7665388

 Al 
  0.2364017  0.9761163  0.7496003

 Al 
  0.2568808  0.2608175  0.5027585

 Al 
  0.9875575  0.4959891  0.5082521

 Al 
  0.9873236  0.7495718  0.7415660

 Al 
  0.2319848  0.5100948  0.7570269

 Al 
  0.2624647  0.7408730  0.5047225

 Al 
  0.4885488  0.5093164  0.9956463

 Al 
  0.5107247  0.7528971  0.2380179

 Al 
  0.7501856  0.4944136  0.2563908

 Al 
  0.7504406  0.7484889  0.9956883

 Al 
  0.5024590  0.0042374  0.4868323

 Al 
  0.4976660  0.2548141  0.7422689

 Al 
  0.7406428  0.9939273  0.7448171

 Al 
  0.7572336  0.2377593  0.5192070

 Al 
  0.5063932  0.5057015  0.5102903

 Al 
  0.5142555  0.7444916  0.7419596

 Al 
  0.7476226  0.4802262  0.7590528

 Al 
  0.7524937  0.7586753  0.4979605

