32 
charge = 0 
 Al 
  0.9913371  0.9914200  0.9964074

 Al 
  0.9902245  0.2461809  0.2576927

 Al 
  0.2630922  0.9966908  0.2350502

 Al 
  0.2599265  0.2428754  0.9903297

 Al 
  0.4926316  0.0197540  0.9776694

 Al 
  0.5063611  0.2642023  0.2464321

 Al 
  0.7479172  0.9997364  0.2513799

 Al 
  0.7616925  0.2648050  0.0236622

 Al 
  0.0046149  0.5151490  0.0108844

 Al 
  0.9975001  0.7502500  0.2640797

 Al 
  0.2501101  0.5000334  0.2499183

 Al 
  0.2586518  0.7373286  0.9894844

 Al 
  0.0081184  0.9999072  0.4872420

 Al 
  0.9935251  0.2479989  0.7660598

 Al 
  0.2365613  0.9777338  0.7484048

 Al 
  0.2549540  0.2592335  0.5024863

 Al 
  0.9871244  0.4976561  0.5092409

 Al 
  0.9868558  0.7499876  0.7410190

 Al 
  0.2312225  0.5107074  0.7572076

 Al 
  0.2614091  0.7409287  0.5051730

 Al 
  0.4880860  0.5095490  0.9950213

 Al 
  0.5105143  0.7528588  0.2381454

 Al 
  0.7517821  0.4944124  0.2565059

 Al 
  0.7491956  0.7501126  0.9960856

 Al 
  0.5012710  0.0032560  0.4871504

 Al 
  0.4970558  0.2562992  0.7416155

 Al 
  0.7396886  0.9932813  0.7434842

 Al 
  0.7568685  0.2379016  0.5201203

 Al 
  0.5062881  0.5048228  0.5126504

 Al 
  0.5147357  0.7444854  0.7425090

 Al 
  0.7472229  0.4811061  0.7584117

 Al 
  0.7534602  0.7593362  0.4984778

