32 
charge = 0 
 Al 
  0.9855997  0.9935374  0.9910710

 Al 
  0.9914559  0.2466276  0.2598881

 Al 
  0.2646527  0.9959606  0.2358052

 Al 
  0.2589129  0.2454878  0.9875588

 Al 
  0.4965484  0.0197206  0.9783191

 Al 
  0.5024578  0.2672615  0.2485323

 Al 
  0.7441736  0.0020172  0.2544453

 Al 
  0.7582273  0.2644325  0.0220831

 Al 
  0.0035357  0.5147691  0.0102000

 Al 
  0.9954581  0.7504133  0.2671427

 Al 
  0.2511262  0.5008180  0.2482352

 Al 
  0.2566841  0.7410079  0.9912046

 Al 
  0.0075009  0.9971573  0.4883298

 Al 
  0.9951611  0.2476412  0.7669299

 Al 
  0.2363670  0.9746423  0.7507524

 Al 
  0.2587558  0.2623831  0.5030469

 Al 
  0.9880810  0.4942478  0.5072100

 Al 
  0.9878001  0.7490892  0.7421798

 Al 
  0.2329117  0.5092619  0.7567064

 Al 
  0.2634573  0.7408767  0.5041310

 Al 
  0.4892109  0.5089005  0.9962725

 Al 
  0.5108596  0.7528947  0.2379461

 Al 
  0.7485582  0.4946438  0.2563574

 Al 
  0.7517066  0.7467848  0.9953443

 Al 
  0.5035704  0.0052139  0.4866269

 Al 
  0.4982711  0.2532857  0.7429781

 Al 
  0.7417331  0.9946698  0.7462811

 Al 
  0.7575677  0.2377382  0.5180573

 Al 
  0.5065281  0.5065319  0.5077174

 Al 
  0.5136070  0.7445733  0.7414880

 Al 
  0.7480756  0.4795456  0.7597384

 Al 
  0.7514405  0.7578697  0.4974209

