32 
charge = 0 
 Al 
  0.9846344  0.9939050  0.9901985

 Al 
  0.9917492  0.2467266  0.2602619

 Al 
  0.2648693  0.9958430  0.2359512

 Al 
  0.2586629  0.2459940  0.9871108

 Al 
  0.4972959  0.0196117  0.9784936

 Al 
  0.5017611  0.2677429  0.2489196

 Al 
  0.7435498  0.0024145  0.2549243

 Al 
  0.7575764  0.2643087  0.0217007

 Al 
  0.0033092  0.5146552  0.0100713

 Al 
  0.9951302  0.7504232  0.2675994

 Al 
  0.2512970  0.5009603  0.2479630

 Al 
  0.2563165  0.7417492  0.9915611

 Al 
  0.0074043  0.9966969  0.4885860

 Al 
  0.9954742  0.2475731  0.7670388

 Al 
  0.2363868  0.9741844  0.7511274

 Al 
  0.2593683  0.2628979  0.5031471

 Al 
  0.9882753  0.4936525  0.5068511

 Al 
  0.9879598  0.7489085  0.7423977

 Al 
  0.2332595  0.5089377  0.7565702

 Al 
  0.2637741  0.7408915  0.5039008

 Al 
  0.4894758  0.5087261  0.9964791

 Al 
  0.5108881  0.7528848  0.2379338

 Al 
  0.7480112  0.4947701  0.2563648

 Al 
  0.7521311  0.7461982  0.9952403

 Al 
  0.5039231  0.0055381  0.4865873

 Al 
  0.4984741  0.2527672  0.7432243

 Al 
  0.7421266  0.9949347  0.7467947

 Al 
  0.7576704  0.2377580  0.5176204

 Al 
  0.5065826  0.5067967  0.5068115

 Al 
  0.5133545  0.7446178  0.7413532

 Al 
  0.7482389  0.4793636  0.7599760

 Al 
  0.7510705  0.7575689  0.4972378

