32 
charge = 0 
 Al 
  0.9875229  0.9928147  0.9928333

 Al 
  0.9909460  0.2464507  0.2591456

 Al 
  0.2641812  0.9961994  0.2355317

 Al 
  0.2593436  0.2445312  0.9884672

 Al 
  0.4951339  0.0198493  0.9780296

 Al 
  0.5038117  0.2662727  0.2477885

 Al 
  0.7454247  0.0012376  0.2534577

 Al 
  0.7594649  0.2646268  0.0227476

 Al 
  0.0039478  0.5149535  0.0104438

 Al 
  0.9961264  0.7503787  0.2661811

 Al 
  0.2507859  0.5005458  0.2487860

 Al 
  0.2573845  0.7396305  0.9905524

 Al 
  0.0077001  0.9980768  0.4878818

 Al 
  0.9945683  0.2477711  0.7666799

 Al 
  0.2363757  0.9756089  0.7499889

 Al 
  0.2575120  0.2613423  0.5028526

 Al 
  0.9877221  0.4954161  0.5079105

 Al 
  0.9874821  0.7494196  0.7417628

 Al 
  0.2322756  0.5098411  0.7569353

 Al 
  0.2628026  0.7408668  0.5045419

 Al 
  0.4887481  0.5091963  0.9958554

 Al 
  0.5107779  0.7529008  0.2379882

 Al 
  0.7496461  0.4944656  0.2563710

 Al 
  0.7508601  0.7479296  0.9955683

 Al 
  0.5028377  0.0045629  0.4867494

 Al 
  0.4978677  0.2543092  0.7424991

 Al 
  0.7409905  0.9941649  0.7452911

 Al 
  0.7573486  0.2377395  0.5188506

 Al 
  0.5064341  0.5059836  0.5094562

 Al 
  0.5140575  0.7445102  0.7417925

 Al 
  0.7477674  0.4799775  0.7592768

 Al 
  0.7521521  0.7584229  0.4977823

