32 
charge = 0 
 Al 
  0.9903854  0.9917628  0.9955089

 Al 
  0.9903668  0.2462366  0.2580516

 Al 
  0.2633818  0.9965670  0.2351616

 Al 
  0.2598163  0.2432565  0.9898582

 Al 
  0.4932169  0.0198220  0.9777338

 Al 
  0.5057423  0.2647319  0.2467551

 Al 
  0.7472959  0.0001064  0.2519120

 Al 
  0.7611653  0.2647864  0.0234865

 Al 
  0.0044676  0.5151205  0.0107792

 Al 
  0.9971511  0.7502896  0.2646268

 Al 
  0.2502785  0.5001596  0.2496312

 Al 
  0.2583523  0.7378459  0.9897220

 Al 
  0.0080107  0.9994518  0.4873707

 Al 
  0.9937689  0.2479469  0.7662282

 Al 
  0.2364945  0.9771793  0.7488082

 Al 
  0.2556024  0.2597644  0.5025754

 Al 
  0.9872593  0.4971078  0.5089166

 Al 
  0.9870105  0.7498540  0.7411935

 Al 
  0.2314588  0.5105279  0.7571642

 Al 
  0.2617680  0.7409039  0.5050381

 Al 
  0.4882172  0.5094933  0.9952292

 Al 
  0.5105923  0.7528761  0.2380971

 Al 
  0.7512537  0.4943877  0.2564588

 Al 
  0.7496077  0.7495792  0.9959457

 Al 
  0.5016744  0.0035840  0.4870328

 Al 
  0.4972613  0.2558091  0.7418271

 Al 
  0.7399918  0.9934855  0.7439124

 Al 
  0.7569935  0.2378409  0.5198418

 Al 
  0.5063202  0.5051210  0.5118868

 Al 
  0.5145946  0.7444792  0.7423184

 Al 
  0.7473504  0.4807918  0.7586196

 Al 
  0.7531471  0.7591320  0.4983083

