32 
charge = 0 
 Al 
  0.9961240  0.9897542  0.0009603

 Al 
  0.9899077  0.2460089  0.2559465

 Al 
  0.2614747  0.9973071  0.2345837

 Al 
  0.2600997  0.2413148  0.9927763

 Al 
  0.4901069  0.0189619  0.9775766

 Al 
  0.5092966  0.2614128  0.2449718

 Al 
  0.7510259  0.9979073  0.2485768

 Al 
  0.7640698  0.2646354  0.0239753

 Al 
  0.0051408  0.5150921  0.0113621

 Al 
  0.9993305  0.7499876  0.2611121

 Al 
  0.2492909  0.4993961  0.2514207

 Al 
  0.2599847  0.7353386  0.9885798

 Al 
  0.0086803  0.0021818  0.4868856

 Al 
  0.9924632  0.2482031  0.7651020

 Al 
  0.2370749  0.9807571  0.7463009

 Al 
  0.2515890  0.2565306  0.5020494

 Al 
  0.9866108  0.5002921  0.5107866

 Al 
  0.9861096  0.7506064  0.7402752

 Al 
  0.2302844  0.5112173  0.7571593

 Al 
  0.2594872  0.7411378  0.5056420

 Al 
  0.4877741  0.5094909  0.9940015

 Al 
  0.5099921  0.7526966  0.2384931

 Al 
  0.7543946  0.4949359  0.2568759

 Al 
  0.7471672  0.7526843  0.9968900

 Al 
  0.4991139  0.0015915  0.4878929

 Al 
  0.4959792  0.2586617  0.7406812

 Al 
  0.7383904  0.9924422  0.7415672

 Al 
  0.7561717  0.2384003  0.5211277

 Al 
  0.5061346  0.5032597  0.5161292

 Al 
  0.5151626  0.7446438  0.7435746

 Al 
  0.7466784  0.4830169  0.7574662

 Al 
  0.7548908  0.7601344  0.4992550

