32 
charge = 0 
 Al 
  0.9951574  0.9900822  0.0000396

 Al 
  0.9899176  0.2460274  0.2562905

 Al 
  0.2618212  0.9971833  0.2346641

 Al 
  0.2601171  0.2415809  0.9922727

 Al 
  0.4905599  0.0191822  0.9775667

 Al 
  0.5087273  0.2619920  0.2452440

 Al 
  0.7504022  0.9982724  0.2491572

 Al 
  0.7636268  0.2647047  0.0239901

 Al 
  0.0050629  0.5151292  0.0112730

 Al 
  0.9989505  0.7500483  0.2617383

 Al 
  0.2494518  0.4995273  0.2511089

 Al 
  0.2597396  0.7356567  0.9887233

 Al 
  0.0085639  0.0017276  0.4869190

 Al 
  0.9926563  0.2481696  0.7653074

 Al 
  0.2369487  0.9801173  0.7467353

 Al 
  0.2522808  0.2570801  0.5021360

 Al 
  0.9866925  0.4997760  0.5104859

 Al 
  0.9862556  0.7504851  0.7404064

 Al 
  0.2304416  0.5111678  0.7572063

 Al 
  0.2598906  0.7410858  0.5055752

 Al 
  0.4877890  0.5095503  0.9942020

 Al 
  0.5101146  0.7527400  0.2384090

 Al 
  0.7538760  0.4947775  0.2567831

 Al 
  0.7475694  0.7521793  0.9967143

 Al 
  0.4995644  0.0019294  0.4877246

 Al 
  0.4962044  0.2582001  0.7408507

 Al 
  0.7386231  0.9925845  0.7419200

 Al 
  0.7563215  0.2382741  0.5209779

 Al 
  0.5061655  0.5035815  0.5154770

 Al 
  0.5151144  0.7445943  0.7433481

 Al 
  0.7467749  0.4825887  0.7576419

 Al 
  0.7546211  0.7600045  0.4991102

