32 
charge = 0 
 Al 
  0.9980843  0.9891045  0.0028192

 Al 
  0.9899696  0.2459915  0.2552658

 Al 
  0.2607420  0.9975533  0.2344451

 Al 
  0.2599822  0.2408544  0.9938097

 Al 
  0.4892753  0.0184273  0.9776335

 Al 
  0.5104178  0.2602186  0.2444594

 Al 
  0.7522808  0.9971697  0.2473801

 Al 
  0.7649151  0.2644411  0.0238231

 Al 
  0.0052559  0.5149757  0.0115291

 Al 
  0.0001151  0.7498515  0.2598102

 Al 
  0.2489741  0.4991263  0.2520667

 Al 
  0.2604426  0.7348275  0.9883483

 Al 
  0.0089142  0.0030939  0.4868719

 Al 
  0.9921068  0.2482563  0.7646688

 Al 
  0.2373608  0.9820962  0.7454086

 Al 
  0.2501671  0.2554143  0.5018724

 Al 
  0.9864809  0.5013093  0.5113757

 Al 
  0.9858237  0.7508514  0.7400450

 Al 
  0.2300134  0.5112371  0.7570071

 Al 
  0.2586481  0.7412566  0.5057373

 Al 
  0.4878174  0.5092929  0.9936068

 Al 
  0.5097173  0.7525927  0.2386887

 Al 
  0.7554341  0.4953332  0.2570888

 Al 
  0.7463702  0.7536867  0.9972675

 Al 
  0.4981820  0.0009047  0.4882592

 Al 
  0.4955101  0.2595651  0.7403730

 Al 
  0.7379659  0.9921984  0.7409076

 Al 
  0.7558549  0.2386973  0.5213492

 Al 
  0.5060665  0.5026001  0.5173680

 Al 
  0.5151997  0.7447701  0.7440486

 Al 
  0.7465051  0.4839488  0.7571358

 Al 
  0.7554057  0.7603534  0.4995297

