32 
charge = 0 
 Al 
  0.9970992  0.9894287  0.0018860

 Al 
  0.9899250  0.2459965  0.2556049

 Al 
  0.2611145  0.9974296  0.2345107

 Al 
  0.2600540  0.2410722  0.9932875

 Al 
  0.4896787  0.0187107  0.9775989

 Al 
  0.5098609  0.2608225  0.2447107

 Al 
  0.7516521  0.9975397  0.2479840

 Al 
  0.7644993  0.2645475  0.0239196

 Al 
  0.0052052  0.5150401  0.0114475

 Al 
  0.9997178  0.7499220  0.2604698

 Al 
  0.2491312  0.4992637  0.2517400

 Al 
  0.2602186  0.7350626  0.9884548

 Al 
  0.0087966  0.0026372  0.4868695

 Al 
  0.9922801  0.2482328  0.7648879

 Al 
  0.2372123  0.9814168  0.7458591

 Al 
  0.2508849  0.2559750  0.5019615

 Al 
  0.9865403  0.5008019  0.5110824

 Al 
  0.9859648  0.7507277  0.7401552

 Al 
  0.2301421  0.5112408  0.7570937

 Al 
  0.2590738  0.7411947  0.5056953

 Al 
  0.4877828  0.5094042  0.9938035

 Al 
  0.5098597  0.7526484  0.2385872

 Al 
  0.7549144  0.4951203  0.2569774

 Al 
  0.7467675  0.7531867  0.9970744

 Al 
  0.4986535  0.0012499  0.4880711

 Al 
  0.4957477  0.2591159  0.7405227

 Al 
  0.7381714  0.9923135  0.7412294

 Al 
  0.7560170  0.2385414  0.5212514

 Al 
  0.5061012  0.5029318  0.5167591

 Al 
  0.5151911  0.7447020  0.7438085

 Al 
  0.7465880  0.4834699  0.7572979

 Al 
  0.7551520  0.7602507  0.4993948

