32 
charge = 0 
 Al 
  0.0021620  0.9878224  0.0066185

 Al 
  0.9904460  0.2460584  0.2539169

 Al 
  0.2591221  0.9980409  0.2342706

 Al 
  0.2593943  0.2402220  0.9960039

 Al 
  0.4879115  0.0169521  0.9778947

 Al 
  0.5126145  0.2576543  0.2435511

 Al 
  0.7548401  0.9956562  0.2448381

 Al 
  0.7664497  0.2638248  0.0230038

 Al 
  0.0053153  0.5145760  0.0118113

 Al 
  0.0018180  0.7495273  0.2569873

 Al 
  0.2483627  0.4985347  0.2534652

 Al 
  0.2612235  0.7343151  0.9881083

 Al 
  0.0093894  0.0049267  0.4870600

 Al 
  0.9915054  0.2483070  0.7637246

 Al 
  0.2380711  0.9850441  0.7435176

 Al 
  0.2471561  0.2530927  0.5015049

 Al 
  0.9863608  0.5033055  0.5125142

 Al 
  0.9852792  0.7513848  0.7397295

 Al 
  0.2296384  0.5109401  0.7564502

 Al 
  0.2568128  0.7415573  0.5057720

 Al 
  0.4882097  0.5085577  0.9928481

 Al 
  0.5090330  0.7523081  0.2392035

 Al 
  0.7575231  0.4964643  0.2576333

 Al 
  0.7447973  0.7556866  0.9981201

 Al 
  0.4961796  0.9994691  0.4891132

 Al 
  0.4944681  0.2612816  0.7398953

 Al 
  0.7372704  0.9918865  0.7397691

 Al 
  0.7551334  0.2394646  0.5214643

 Al 
  0.5058896  0.5012277  0.5195733

 Al 
  0.5150314  0.7451450  0.7450720

 Al 
  0.7462489  0.4861331  0.7565739

 Al 
  0.7563437  0.7606294  0.4999926

