32 
charge = 0 
 Al 
  0.0042981  0.9871888  0.0085553

 Al 
  0.9908693  0.2461475  0.2532449

 Al 
  0.2582310  0.9982798  0.2342458

 Al 
  0.2589104  0.2400587  0.9971759

 Al 
  0.4873793  0.0160029  0.9780964

 Al 
  0.5137011  0.2562720  0.2431575

 Al 
  0.7561494  0.9948728  0.2434892

 Al 
  0.7671440  0.2633954  0.0223182

 Al 
  0.0052596  0.5142889  0.0119214

 Al 
  0.0027486  0.7493391  0.2554638

 Al 
  0.2480744  0.4982043  0.2542275

 Al 
  0.2615427  0.7343263  0.9881021

 Al 
  0.0096220  0.0058438  0.4872618

 Al 
  0.9912628  0.2482984  0.7632147

 Al 
  0.2384944  0.9866653  0.7425140

 Al 
  0.2455572  0.2518836  0.5013106

 Al 
  0.9863769  0.5042857  0.5130612

 Al 
  0.9850267  0.7516930  0.7396614

 Al 
  0.2295320  0.5106146  0.7560405

 Al 
  0.2558054  0.7417417  0.5057114

 Al 
  0.4885686  0.5080058  0.9924905

 Al 
  0.5086159  0.7521237  0.2395339

 Al 
  0.7585763  0.4972019  0.2579650

 Al 
  0.7440250  0.7566915  0.9985904

 Al 
  0.4951067  0.9987129  0.4896020

 Al 
  0.4938827  0.2620823  0.7397406

 Al 
  0.7370006  0.9918284  0.7392926

 Al 
  0.7547201  0.2399411  0.5213480

 Al 
  0.5057708  0.5005223  0.5205274

 Al 
  0.5148186  0.7453987  0.7456178

 Al 
  0.7461710  0.4874004  0.7563487

 Al 
  0.7567620  0.7606901  0.5001733

