32 
charge = 0 
 Al 
  0.0110749  0.9853386  0.0143112

 Al 
  0.9929174  0.2466747  0.2512462

 Al 
  0.2553265  0.9989307  0.2345317

 Al 
  0.2566655  0.2402282  0.0009641

 Al 
  0.4863980  0.0123026  0.9789701

 Al 
  0.5169261  0.2517190  0.2422430

 Al 
  0.7601381  0.9924509  0.2392295

 Al 
  0.7689001  0.2616120  0.0191030

 Al 
  0.0047448  0.5130575  0.0120613

 Al 
  0.0058846  0.7486572  0.2505334

 Al 
  0.2473194  0.4970459  0.2567806

 Al 
  0.2621764  0.7354562  0.9885377

 Al 
  0.0102087  0.0085021  0.4883038

 Al 
  0.9908012  0.2481201  0.7615650

 Al 
  0.2400067  0.9921279  0.7393161

 Al 
  0.2404423  0.2481189  0.5006856

 Al 
  0.9867692  0.5071086  0.5145760

 Al 
  0.9844055  0.7528798  0.7399312

 Al 
  0.2295419  0.5088968  0.7542869

 Al 
  0.2524194  0.7424422  0.5052188

 Al 
  0.4903025  0.5055777  0.9915784

 Al 
  0.5070306  0.7513836  0.2408631

 Al 
  0.7617123  0.5000693  0.2591679

 Al 
  0.7418420  0.7596951  0.0001275

 Al 
  0.4916366  0.9962898  0.4912987

 Al 
  0.4918247  0.2641107  0.7397022

 Al 
  0.7365341  0.9920994  0.7382691

 Al 
  0.7532375  0.2417405  0.5202428

 Al 
  0.5052436  0.4984209  0.5226412

 Al 
  0.5136132  0.7464383  0.7473392

 Al 
  0.7461858  0.4919261  0.7559490

 Al 
  0.7577707  0.7605812  0.5004245

