32 
charge = 0 
 Al 
  0.0179063  0.9837471  0.0191958

 Al 
  0.9959507  0.2476140  0.2494060

 Al 
  0.2524863  0.9993713  0.2355873

 Al 
  0.2534256  0.2413977  0.0048562

 Al 
  0.4863225  0.0076469  0.9801978

 Al 
  0.5199384  0.2468232  0.2418049

 Al 
  0.7638991  0.9901391  0.2351171

 Al 
  0.7700361  0.2592000  0.0143532

 Al 
  0.0038129  0.5113621  0.0117964

 Al 
  0.0093745  0.7477934  0.2455485

 Al 
  0.2468603  0.4957019  0.2595540

 Al 
  0.2622816  0.7380130  0.9895772

 Al 
  0.0103930  0.0106888  0.4899077

 Al 
  0.9908173  0.2476907  0.7598460

 Al 
  0.2417232  0.9981375  0.7361678

 Al 
  0.2353077  0.2445312  0.5000322

 Al 
  0.9877160  0.5095094  0.5157616

 Al 
  0.9841394  0.7545381  0.7410821

 Al 
  0.2300356  0.5062212  0.7519281

 Al 
  0.2486845  0.7433246  0.5043327

 Al 
  0.4928494  0.5021793  0.9910933

 Al 
  0.5050035  0.7503775  0.2426811

 Al 
  0.7645315  0.5036421  0.2605366

 Al 
  0.7400834  0.7624103  0.0016064

 Al 
  0.4880872  0.9937998  0.4931786

 Al 
  0.4893830  0.2652418  0.7404287

 Al 
  0.7366492  0.9930981  0.7379325

 Al 
  0.7514393  0.2439768  0.5180239

 Al 
  0.5043983  0.4966474  0.5233268

 Al 
  0.5115663  0.7478009  0.7489939

 Al 
  0.7466227  0.4972699  0.7560207

 Al 
  0.7582756  0.7601047  0.5001250

