32 
charge = 0 
 Al 
  0.0189780  0.9835305  0.0198369

 Al 
  0.9965138  0.2478058  0.2491300

 Al 
  0.2520704  0.9994159  0.2358534

 Al 
  0.2528278  0.2416774  0.0054725

 Al 
  0.4863881  0.0068326  0.9804279

 Al 
  0.5203963  0.2460150  0.2417826

 Al 
  0.7644646  0.9897951  0.2345032

 Al 
  0.7701537  0.2587582  0.0134610

 Al 
  0.0036335  0.5110514  0.0117036

 Al 
  0.0099624  0.7476325  0.2447750

 Al 
  0.2468244  0.4954730  0.2600094

 Al 
  0.2622482  0.7385315  0.9897913

 Al 
  0.0103596  0.0109710  0.4902121

 Al 
  0.9908680  0.2475979  0.7595676

 Al 
  0.2420066  0.9991362  0.7356925

 Al 
  0.2345119  0.2439991  0.4999257

 Al 
  0.9879226  0.5098436  0.5159138

 Al 
  0.9841431  0.7548562  0.7413618

 Al 
  0.2301594  0.5057151  0.7515074

 Al 
  0.2480607  0.7434805  0.5041594

 Al 
  0.4933209  0.5015569  0.9910697

 Al 
  0.5046384  0.7501893  0.2430189

 Al 
  0.7649374  0.5042634  0.2607606

 Al 
  0.7398532  0.7627989  0.0018205

 Al 
  0.4875291  0.9934038  0.4934892

 Al 
  0.4889585  0.2653161  0.7406230

 Al 
  0.7367259  0.9933320  0.7379437

 Al 
  0.7511225  0.2443703  0.5175647

 Al 
  0.5042263  0.4964123  0.5232847

 Al 
  0.5111566  0.7480422  0.7492414

 Al 
  0.7467341  0.4981932  0.7560764

 Al 
  0.7583028  0.7600007  0.5000186

