32 
charge = 0 
 Al 
  0.0219865  0.9829897  0.0213739

 Al 
  0.9982328  0.2484271  0.2483701

 Al 
  0.2509876  0.9994963  0.2368175

 Al 
  0.2510000  0.2426316  0.0072150

 Al 
  0.4866925  0.0044045  0.9811507

 Al 
  0.5216660  0.2436587  0.2417950

 Al 
  0.7660153  0.9888706  0.2328499

 Al 
  0.7703789  0.2573969  0.0106950

 Al 
  0.0030828  0.5101022  0.0113410

 Al 
  0.0116913  0.7471227  0.2426254

 Al 
  0.2467922  0.4947960  0.2613286

 Al 
  0.2620737  0.7401639  0.9904695

 Al 
  0.0101245  0.0116405  0.4911601

 Al 
  0.9910982  0.2472897  0.7587595

 Al 
  0.2428308  0.0020432  0.7344092

 Al 
  0.2323103  0.2425746  0.4996114

 Al 
  0.9886095  0.5107062  0.5162838

 Al 
  0.9842421  0.7558623  0.7423395

 Al 
  0.2305876  0.5041557  0.7502488

 Al 
  0.2462316  0.7439570  0.5036211

 Al 
  0.4947701  0.4996621  0.9911131

 Al 
  0.5035221  0.7496003  0.2440659

 Al 
  0.7660116  0.5061098  0.2613980

 Al 
  0.7392889  0.7638161  0.0023699

 Al 
  0.4859611  0.9922801  0.4943877

 Al 
  0.4876900  0.2653322  0.7413173

 Al 
  0.7370427  0.9941377  0.7380823

 Al 
  0.7501658  0.2455522  0.5160796

 Al 
  0.5036669  0.4958430  0.5228999

 Al 
  0.5098374  0.7487649  0.7499047

 Al 
  0.7471264  0.5009467  0.7563041

 Al 
  0.7582842  0.7596678  0.4996114

