32 
charge = 0 
 Al 
  0.0156849  0.9842297  0.0177429

 Al 
  0.9948604  0.2472588  0.2499889

 Al 
  0.2533810  0.9992562  0.2351344

 Al 
  0.2545852  0.2409052  0.0035840

 Al 
  0.4862544  0.0092607  0.9797560

 Al 
  0.5189793  0.2484580  0.2418940

 Al 
  0.7627048  0.9908705  0.2364215

 Al 
  0.7697379  0.2600564  0.0160685

 Al 
  0.0041557  0.5119648  0.0119388

 Al 
  0.0081964  0.7481016  0.2471623

 Al 
  0.2469704  0.4961598  0.2586283

 Al 
  0.2623063  0.7370390  0.9891775

 Al 
  0.0103980  0.0100441  0.4893248

 Al 
  0.9907554  0.2478603  0.7604141

 Al 
  0.2411465  0.9961202  0.7371739

 Al 
  0.2369685  0.2456661  0.5002488

 Al 
  0.9873410  0.5087793  0.5154151

 Al 
  0.9841765  0.7539354  0.7405958

 Al 
  0.2298215  0.5071927  0.7527561

 Al 
  0.2499418  0.7430164  0.5046607

 Al 
  0.4919348  0.5033884  0.9911923

 Al 
  0.5057163  0.7507388  0.2420313

 Al 
  0.7636565  0.5024083  0.2600799

 Al 
  0.7406020  0.7615675  0.0011447

 Al 
  0.4892443  0.9946166  0.4925499

 Al 
  0.4902233  0.2649894  0.7400995

 Al 
  0.7365440  0.9926848  0.7379659

 Al 
  0.7520630  0.2432008  0.5188728

 Al 
  0.5047164  0.4971746  0.5232748

 Al 
  0.5123323  0.7473244  0.7484704

 Al 
  0.7464309  0.4954371  0.7559440

 Al 
  0.7581716  0.7602940  0.5002908

