32 
charge = 0 
 Al 
  0.0145451  0.9844909  0.0169410

 Al 
  0.9943406  0.2470954  0.2502933

 Al 
  0.2538525  0.9991857  0.2349463

 Al 
  0.2551396  0.2406948  0.0029330

 Al 
  0.4862532  0.0100515  0.9795468

 Al 
  0.5184793  0.2492797  0.2419596

 Al 
  0.7620823  0.9912554  0.2371046

 Al 
  0.7695572  0.2604685  0.0168828

 Al 
  0.0043179  0.5122543  0.0119883

 Al 
  0.0076085  0.7482476  0.2479939

 Al 
  0.2470422  0.4963863  0.2581630

 Al 
  0.2622964  0.7365922  0.9889956

 Al 
  0.0103732  0.0096864  0.4890488

 Al 
  0.9907467  0.2479357  0.7607012

 Al 
  0.2408581  0.9951104  0.7376974

 Al 
  0.2378236  0.2462613  0.5003577

 Al 
  0.9871751  0.5083857  0.5152220

 Al 
  0.9842161  0.7536520  0.7403903

 Al 
  0.2297324  0.5076531  0.7531583

 Al 
  0.2505693  0.7428667  0.5048154

 Al 
  0.4914992  0.5039689  0.9912665

 Al 
  0.5060603  0.7509096  0.2417207

 Al 
  0.7631912  0.5018031  0.2598485

 Al 
  0.7408891  0.7611195  0.0008985

 Al 
  0.4898371  0.9950324  0.4922331

 Al 
  0.4906366  0.2648149  0.7399671

 Al 
  0.7365168  0.9925078  0.7380117

 Al 
  0.7523675  0.2428221  0.5192589

 Al 
  0.5048624  0.4974655  0.5231820

 Al 
  0.5126863  0.7470930  0.7481956

 Al 
  0.7463517  0.4945337  0.7559254

 Al 
  0.7580949  0.7603794  0.5003490

