32 
charge = 0 
 Al 
  0.0281063  0.9824860  0.0223665

 Al 
  0.0025865  0.2502846  0.2468492

 Al 
  0.2495483  0.9993701  0.2405636

 Al 
  0.2462836  0.2457490  0.0108707

 Al 
  0.4880711  0.9985199  0.9832731

 Al 
  0.5242228  0.2380637  0.2423110

 Al 
  0.7690065  0.9873620  0.2300418

 Al 
  0.7700807  0.2536409  0.0031830

 Al 
  0.0017004  0.5075788  0.0097557

 Al 
  0.0158668  0.7455782  0.2384288

 Al 
  0.2472860  0.4931575  0.2643235

 Al 
  0.2611839  0.7444867  0.9923160

 Al 
  0.0083634  0.0120093  0.4937491

 Al 
  0.9921699  0.2463529  0.7568487

 Al 
  0.2446921  0.0087619  0.7323016

 Al 
  0.2281100  0.2402851  0.4987884

 Al 
  0.9907752  0.5119945  0.5166564

 Al 
  0.9852148  0.7588127  0.7457477

 Al 
  0.2320516  0.5000792  0.7472068

 Al 
  0.2418321  0.7452255  0.5022251

 Al 
  0.4985978  0.4947676  0.9920709

 Al 
  0.5005792  0.7478961  0.2469618

 Al 
  0.7677293  0.5105898  0.2627147

 Al 
  0.7386862  0.7652715  0.0030667

 Al 
  0.4828041  0.9898904  0.4964284

 Al 
  0.4845664  0.2639300  0.7437726

 Al 
  0.7383991  0.9968987  0.7390575

 Al 
  0.7476932  0.2485644  0.5116244

 Al 
  0.5019170  0.4953084  0.5202218

 Al 
  0.5058475  0.7505049  0.7510408

 Al 
  0.7484568  0.5078288  0.7571915

 Al 
  0.7575714  0.7587533  0.4980447

