32 
charge = 0 
 Al 
  0.0308710  0.9830937  0.0202341

 Al 
  0.0053129  0.2517747  0.2461165

 Al 
  0.2498552  0.9990533  0.2444743

 Al 
  0.2431303  0.2484716  0.0126788

 Al 
  0.4894745  0.9948654  0.9851344

 Al 
  0.5254109  0.2344426  0.2430041

 Al 
  0.7703158  0.9871727  0.2294453

 Al 
  0.7690696  0.2506844  0.9976412

 Al 
  0.0008861  0.5057373  0.0079773

 Al 
  0.0185634  0.7442528  0.2367123

 Al 
  0.2482105  0.4920945  0.2660103

 Al 
  0.2602421  0.7472538  0.9935696

 Al 
  0.0058450  0.0109561  0.4956562

 Al 
  0.9933159  0.2456326  0.7555517

 Al 
  0.2457403  0.0127135  0.7321073

 Al 
  0.2265965  0.2400339  0.4981102

 Al 
  0.9925907  0.5121120  0.5164225

 Al 
  0.9866628  0.7612284  0.7489159

 Al 
  0.2333969  0.4973430  0.7454037

 Al 
  0.2389436  0.7462168  0.5013712

 Al 
  0.5013428  0.4914113  0.9936142

 Al 
  0.4984803  0.7464754  0.2491733

 Al 
  0.7679793  0.5134090  0.2632531

 Al 
  0.7389807  0.7651379  0.0028452

 Al 
  0.4814836  0.9886751  0.4976276

 Al 
  0.4826110  0.2616640  0.7460126

 Al 
  0.7397592  0.9994777  0.7401936

 Al 
  0.7459556  0.2506732  0.5079848

 Al 
  0.5003973  0.4957316  0.5169422

 Al 
  0.5024665  0.7515420  0.7512908

 Al 
  0.7496126  0.5124969  0.7579390

 Al 
  0.7564984  0.7581729  0.4965868

