32 
charge = 0 
 Al 
  0.0314811  0.9834983  0.0190164

 Al 
  0.0060925  0.2522845  0.2459371

 Al 
  0.2501893  0.9989196  0.2459878

 Al 
  0.2421613  0.2494493  0.0131219

 Al 
  0.4900042  0.9937850  0.9858349

 Al 
  0.5256831  0.2333065  0.2432701

 Al 
  0.7706178  0.9872803  0.2295109

 Al 
  0.7685820  0.2496461  0.9957972

 Al 
  0.0006670  0.5051223  0.0072620

 Al 
  0.0193938  0.7437850  0.2363781

 Al 
  0.2486300  0.4917628  0.2664682

 Al 
  0.2598881  0.7480508  0.9939520

 Al 
  0.0047621  0.0103621  0.4962886

 Al 
  0.9937577  0.2454025  0.7551173

 Al 
  0.2460287  0.0138372  0.7323152

 Al 
  0.2263774  0.2402121  0.4978590

 Al 
  0.9932243  0.5120118  0.5162566

 Al 
  0.9872989  0.7620798  0.7500780

 Al 
  0.2338931  0.4965014  0.7449050

 Al 
  0.2380253  0.7465732  0.5011435

 Al 
  0.5022474  0.4903445  0.9942973

 Al 
  0.4977971  0.7459643  0.2499233

 Al 
  0.7678828  0.5142493  0.2633347

 Al 
  0.7392047  0.7648656  0.0026385

 Al 
  0.4812423  0.9883669  0.4979840

 Al 
  0.4820454  0.2606963  0.7468219

 Al 
  0.7402629  0.0004344  0.7406292

 Al 
  0.7453963  0.2513626  0.5067125

 Al 
  0.4998465  0.4960039  0.5156354

 Al 
  0.5012512  0.7518353  0.7512673

 Al 
  0.7500161  0.5139906  0.7581815

 Al 
  0.7560492  0.7580169  0.4960732

