32 
charge = 0 
 Al 
  0.0322670  0.9846245  0.0158779

 Al 
  0.0074291  0.2533191  0.2456772

 Al 
  0.2511497  0.9986201  0.2493033

 Al 
  0.2403643  0.2515135  0.0137790

 Al 
  0.4911564  0.9918197  0.9873930

 Al 
  0.5260433  0.2311098  0.2438295

 Al 
  0.7710633  0.9877457  0.2300196

 Al 
  0.7673741  0.2474679  0.9921006

 Al 
  0.0003119  0.5038798  0.0056359

 Al 
  0.0209606  0.7428283  0.2360329

 Al 
  0.2496461  0.4911267  0.2672219

 Al 
  0.2591245  0.7494320  0.9946624

 Al 
  0.0022301  0.0088213  0.4975558

 Al 
  0.9947317  0.2449705  0.7542090

 Al 
  0.2465088  0.0157950  0.7331444

 Al 
  0.2263353  0.2409386  0.4973071

 Al 
  0.9945250  0.5116158  0.5157925

 Al 
  0.9888260  0.7638557  0.7525531

 Al 
  0.2349686  0.4949309  0.7440696

 Al 
  0.2362247  0.7473541  0.5007995

 Al 
  0.5040617  0.4882716  0.9959334

 Al 
  0.4964445  0.7448740  0.2514492

 Al 
  0.7674335  0.5157814  0.2633360

 Al 
  0.7398396  0.7639894  0.0020420

 Al 
  0.4810678  0.9878843  0.4986610

 Al 
  0.4810628  0.2584600  0.7485273

 Al 
  0.7413333  0.0024875  0.7415685

 Al 
  0.7443060  0.2527288  0.5040741

 Al 
  0.4986709  0.4967192  0.5127160

 Al 
  0.4986671  0.7523439  0.7510631

 Al 
  0.7508477  0.5169138  0.7586357

 Al 
  0.7550220  0.7577793  0.4950324

