32 
charge = 0 
 Al 
  0.0324093  0.9871244  0.0097149

 Al 
  0.0087805  0.2548525  0.2455485

 Al 
  0.2530976  0.9981214  0.2548017

 Al 
  0.2381231  0.2548067  0.0141763

 Al 
  0.4930845  0.9893879  0.9901379

 Al 
  0.5260779  0.2280333  0.2446562

 Al 
  0.7714234  0.9890166  0.2316408

 Al 
  0.7649906  0.2439879  0.9866244

 Al 
  0.9999926  0.5020148  0.0027437

 Al 
  0.0230273  0.7414311  0.2362383

 Al 
  0.2515890  0.4902505  0.2678976

 Al 
  0.2578746  0.7508948  0.9955683

 Al 
  0.9976499  0.0057423  0.4994245

 Al 
  0.9964086  0.2444532  0.7527041

 Al 
  0.2469766  0.0179236  0.7353992

 Al 
  0.2271892  0.2428469  0.4963826

 Al 
  0.9965002  0.5105824  0.5147629

 Al 
  0.9917591  0.7666316  0.7565096

 Al 
  0.2367903  0.4929150  0.7432726

 Al 
  0.2336122  0.7487278  0.5006312

 Al 
  0.5067781  0.4853411  0.9990458

 Al 
  0.4944631  0.7430944  0.2537548

 Al 
  0.7661762  0.5176390  0.2628620

 Al 
  0.7412566  0.7618992  0.0007500

 Al 
  0.4816172  0.9874981  0.4996634

 Al 
  0.4800443  0.2544713  0.7512400

 Al 
  0.7430251  0.0058104  0.7430659

 Al 
  0.7427986  0.2547263  0.4999641

 Al 
  0.4967341  0.4981313  0.5077150

 Al 
  0.4944421  0.7528971  0.7503836

 Al 
  0.7521001  0.5211017  0.7591654

 Al 
  0.7532078  0.7576481  0.4935572

