32 
charge = 0 
 Al 
  0.0321940  0.9881602  0.0074056

 Al 
  0.0090280  0.2553339  0.2455819

 Al 
  0.2538055  0.9979531  0.2566828

 Al 
  0.2375390  0.2559143  0.0141478

 Al 
  0.4937627  0.9887308  0.9911452

 Al 
  0.5259393  0.2270940  0.2449025

 Al 
  0.7714841  0.9895686  0.2323709

 Al 
  0.7640649  0.2428085  0.9848782

 Al 
  0.9999394  0.5014133  0.0016905

 Al 
  0.0236152  0.7410066  0.2364722

 Al 
  0.2523254  0.4899943  0.2679855

 Al 
  0.2574464  0.7511967  0.9958220

 Al 
  0.9959866  0.0045666  0.5000136

 Al 
  0.9970100  0.2443357  0.7521608

 Al 
  0.2470633  0.0183889  0.7363905

 Al 
  0.2276917  0.2436538  0.4960658

 Al 
  0.9971375  0.5101406  0.5143347

 Al 
  0.9928828  0.7675400  0.7578338

 Al 
  0.2374486  0.4923581  0.7431439

 Al 
  0.2327855  0.7492327  0.5006794

 Al 
  0.5076605  0.4844364  0.0002289

 Al 
  0.4938258  0.7424843  0.2545010

 Al 
  0.7656279  0.5181130  0.2625650

 Al 
  0.7418432  0.7610329  0.0002463

 Al 
  0.4820195  0.9874623  0.5000087

 Al 
  0.4798525  0.2530370  0.7521509

 Al 
  0.7435808  0.0069291  0.7435585

 Al 
  0.7423519  0.2553611  0.4986028

 Al 
  0.4960608  0.4986585  0.5059576

 Al 
  0.4929793  0.7530172  0.7500693

 Al 
  0.7524986  0.5224085  0.7592743

 Al 
  0.7525519  0.7576692  0.4931278

