32 
charge = 0 
 Al 
  0.0323177  0.9876306  0.0085689

 Al 
  0.0089179  0.2550963  0.2455609

 Al 
  0.2534516  0.9980360  0.2557435

 Al 
  0.2378199  0.2553624  0.0141726

 Al 
  0.4934224  0.9890488  0.9906366

 Al 
  0.5260185  0.2275568  0.2447824

 Al 
  0.7714569  0.9892864  0.2319959

 Al 
  0.7645352  0.2433976  0.9857433

 Al 
  0.9999629  0.5017115  0.0022214

 Al 
  0.0233293  0.7412145  0.2363460

 Al 
  0.2519529  0.4901193  0.2679508

 Al 
  0.2576605  0.7510581  0.9956982

 Al 
  0.9968232  0.0051606  0.4997228

 Al 
  0.9967081  0.2443901  0.7524343

 Al 
  0.2470249  0.0181724  0.7358819

 Al 
  0.2274281  0.2432417  0.4962242

 Al 
  0.9968207  0.5103671  0.5145537

 Al 
  0.9923135  0.7670883  0.7571741

 Al 
  0.2371157  0.4926291  0.7431996

 Al 
  0.2331939  0.7489778  0.5006485

 Al 
  0.5072212  0.4848832  0.9996300

 Al 
  0.4941414  0.7427900  0.2541310

 Al 
  0.7659089  0.5178853  0.2627221

 Al 
  0.7415437  0.7614747  0.0005012

 Al 
  0.4818054  0.9874746  0.4998354

 Al 
  0.4799379  0.2537572  0.7516967

 Al 
  0.7433048  0.0063722  0.7433134

 Al 
  0.7425709  0.2550468  0.4992797

 Al 
  0.4963987  0.4983924  0.5068375

 Al 
  0.4937119  0.7529615  0.7502302

 Al 
  0.7523019  0.5217638  0.7592248

 Al 
  0.7528823  0.7576543  0.4933370

