32 
charge = 0 
 Al 
  0.0316469  0.9898755  0.0038587

 Al 
  0.0091901  0.2560022  0.2457032

 Al 
  0.2548475  0.9977093  0.2594488

 Al 
  0.2368546  0.2575380  0.0139560

 Al 
  0.4947899  0.9878966  0.9927132

 Al 
  0.5255841  0.2257995  0.2452255

 Al 
  0.7715361  0.9904782  0.2335949

 Al 
  0.7625897  0.2410759  0.9824068

 Al 
  0.9999035  0.5005557  0.0000705

 Al 
  0.0243787  0.7404374  0.2369499

 Al 
  0.2534763  0.4896589  0.2679768

 Al 
  0.2568115  0.7514616  0.9961537

 Al 
  0.9934545  0.0027387  0.5008329

 Al 
  0.9979271  0.2442305  0.7513168

 Al 
  0.2471276  0.0188407  0.7380489

 Al 
  0.2286162  0.2449656  0.4956029

 Al 
  0.9980409  0.5094117  0.5136256

 Al 
  0.9946624  0.7688308  0.7597619

 Al 
  0.2384746  0.4916489  0.7430857

 Al 
  0.2316185  0.7500223  0.5008514

 Al 
  0.5089315  0.4831716  0.0020865

 Al 
  0.4929088  0.7415833  0.2555690

 Al 
  0.7647196  0.5186674  0.2619883

 Al 
  0.7428073  0.7596307  0.9994604

 Al 
  0.4828152  0.9874994  0.5005421

 Al 
  0.4797201  0.2508663  0.7534837

 Al 
  0.7443753  0.0085540  0.7442639

 Al 
  0.7417541  0.2562707  0.4966301

 Al 
  0.4950510  0.4994617  0.5033328

 Al 
  0.4907876  0.7531261  0.7495359

 Al 
  0.7530543  0.5242364  0.7593498

 Al 
  0.7515457  0.7577558  0.4925721

