32 
charge = 0 
 Al 
  0.0314093  0.9904831  0.0026781

 Al 
  0.0091889  0.2562076  0.2457626

 Al 
  0.2551792  0.9976313  0.2603423

 Al 
  0.2366814  0.2580615  0.0138533

 Al 
  0.4951314  0.9876603  0.9932454

 Al 
  0.5254257  0.2254034  0.2453183

 Al 
  0.7715460  0.9907975  0.2340293

 Al 
  0.7620811  0.2405166  0.9816309

 Al 
  0.9999010  0.5002846  0.9995260

 Al 
  0.0245978  0.7402703  0.2371380

 Al 
  0.2538649  0.4895624  0.2679348

 Al 
  0.2566061  0.7514999  0.9962502

 Al 
  0.9926142  0.0021212  0.5010853

 Al 
  0.9982328  0.2442169  0.7510284

 Al 
  0.2471326  0.0189236  0.7386379

 Al 
  0.2289652  0.2454198  0.4954557

 Al 
  0.9983231  0.5091555  0.5133731

 Al 
  0.9952713  0.7692330  0.7603794

 Al 
  0.2388260  0.4914472  0.7431043

 Al 
  0.2312534  0.7502908  0.5009344

 Al 
  0.5093374  0.4827793  0.0027202

 Al 
  0.4926155  0.7412925  0.2559069

 Al 
  0.7644003  0.5188085  0.2617630

 Al 
  0.7431476  0.7591443  0.9991968

 Al 
  0.4831283  0.9875353  0.5007227

 Al 
  0.4797188  0.2501497  0.7539156

 Al 
  0.7446253  0.0090713  0.7444867

 Al 
  0.7415759  0.2565603  0.4960002

 Al 
  0.4947206  0.4997265  0.5024739

 Al 
  0.4900661  0.7531422  0.7493466

 Al 
  0.7532263  0.5248032  0.7593485

 Al 
  0.7512079  0.7577979  0.4924137

