32 
charge = 0 
 Al 
  0.0324687  0.9866418  0.0108349

 Al 
  0.0086171  0.2546037  0.2455473

 Al 
  0.2527474  0.9982055  0.2538612

 Al 
  0.2384498  0.2542498  0.0141602

 Al 
  0.4927504  0.9897468  0.9896478

 Al 
  0.5261188  0.2285221  0.2445250

 Al 
  0.7713838  0.9887617  0.2313066

 Al 
  0.7654312  0.2445782  0.9875179

 Al 
  0.0000285  0.5023204  0.0032573

 Al 
  0.0227117  0.7416539  0.2361492

 Al 
  0.2512351  0.4903879  0.2678271

 Al 
  0.2580887  0.7507066  0.9954322

 Al 
  0.9984629  0.0063066  0.4991213

 Al 
  0.9961141  0.2445238  0.7529677

 Al 
  0.2469209  0.0176427  0.7349451

 Al 
  0.2269764  0.2424707  0.4965410

 Al 
  0.9961747  0.5107878  0.5149609

 Al 
  0.9912207  0.7661688  0.7558425

 Al 
  0.2364697  0.4932182  0.7433642

 Al 
  0.2340367  0.7484827  0.5006262

 Al 
  0.5063301  0.4858101  0.9984778

 Al 
  0.4947874  0.7433988  0.2533748

 Al 
  0.7664286  0.5173717  0.2629845

 Al 
  0.7409831  0.7623051  0.0009913

 Al 
  0.4814576  0.9875328  0.4994938

 Al 
  0.4801705  0.2551755  0.7507821

 Al 
  0.7427429  0.0052473  0.7428147

 Al 
  0.7430350  0.2544008  0.5006510

 Al 
  0.4970682  0.4978751  0.5085837

 Al 
  0.4951686  0.7528241  0.7505247

 Al 
  0.7518959  0.5204284  0.7590961

 Al 
  0.7535283  0.7576494  0.4937874

