32 
charge = 0 
 Al 
  0.0324959  0.9861851  0.0119239

 Al 
  0.0084278  0.2543513  0.2455547

 Al 
  0.2524046  0.9982897  0.2529268

 Al 
  0.2387963  0.2536941  0.0141243

 Al 
  0.4924212  0.9901255  0.9891713

 Al 
  0.5261398  0.2290221  0.2443914

 Al 
  0.7713368  0.9885228  0.2309972

 Al 
  0.7658569  0.2451661  0.9884226

 Al 
  0.0000718  0.5026298  0.0037597

 Al 
  0.0223838  0.7418816  0.2360811

 Al 
  0.2508910  0.4905289  0.2677380

 Al 
  0.2583016  0.7504963  0.9952898

 Al 
  0.9992599  0.0068549  0.4988119

 Al 
  0.9958245  0.2446018  0.7532263

 Al 
  0.2468566  0.0173321  0.7345206

 Al 
  0.2267908  0.2421155  0.4966994

 Al 
  0.9958455  0.5109797  0.5151490

 Al 
  0.9907010  0.7657034  0.7551755

 Al 
  0.2361554  0.4935350  0.7434731

 Al 
  0.2344661  0.7482439  0.5006361

 Al 
  0.5058784  0.4862878  0.9979283

 Al 
  0.4951141  0.7437020  0.2529912

 Al 
  0.7666650  0.5170870  0.2630885

 Al 
  0.7407245  0.7626887  0.0012239

 Al 
  0.4813239  0.9875798  0.4993255

 Al 
  0.4803141  0.2558673  0.7503255

 Al 
  0.7424583  0.0046854  0.7425635

 Al 
  0.7432776  0.2540728  0.5013403

 Al 
  0.4973986  0.4976251  0.5094426

 Al 
  0.4958876  0.7527424  0.7506559

 Al 
  0.7516880  0.5197416  0.7590169

 Al 
  0.7538414  0.7576593  0.4940250

