32 
charge = 0 
 Al 
  0.0277152  0.9972675  0.9919930

 Al 
  0.0077385  0.2577125  0.2468603

 Al 
  0.2576754  0.9969915  0.2679583

 Al 
  0.2365700  0.2625724  0.0118744

 Al 
  0.4984271  0.9862903  0.9985533

 Al 
  0.5228070  0.2225187  0.2458480

 Al 
  0.7714655  0.9940783  0.2387048

 Al 
  0.7568165  0.2358113  0.9755482

 Al 
  0.0000309  0.4980892  0.9942342

 Al 
  0.0256930  0.7393161  0.2395376

 Al 
  0.2576147  0.4891194  0.2664014

 Al 
  0.2548475  0.7506151  0.9969531

 Al 
  0.9849067  0.9963170  0.5028650

 Al 
  0.0010730  0.2447676  0.7480112

 Al 
  0.2468714  0.0180845  0.7449953

 Al 
  0.2333251  0.2499530  0.4943258

 Al 
  0.0004344  0.5063920  0.5104908

 Al 
  0.0014207  0.7721091  0.7654485

 Al 
  0.2425239  0.4904052  0.7442528

 Al 
  0.2284280  0.7530147  0.5023761

 Al 
  0.5127729  0.4797535  0.0089946

 Al 
  0.4901700  0.7389102  0.2586171

 Al 
  0.7609920  0.5190176  0.2587793

 Al 
  0.7467960  0.7542820  0.9968281

 Al 
  0.4873991  0.9885377  0.5026113

 Al 
  0.4808821  0.2436761  0.7576828

 Al 
  0.7465509  0.0131330  0.7462155

 Al 
  0.7404101  0.2590713  0.4907591

 Al 
  0.4918395  0.5020098  0.4949248

 Al 
  0.4835268  0.7527511  0.7473491

 Al 
  0.7544280  0.5290518  0.7584204

 Al 
  0.7478491  0.7583820  0.4915871

