32 
charge = 0 
 Al 
  0.0286322  0.9958208  0.9939050

 Al 
  0.0082236  0.2574922  0.2465682

 Al 
  0.2573165  0.9970942  0.2666489

 Al 
  0.2363571  0.2617865  0.0123991

 Al 
  0.4977897  0.9864400  0.9975038

 Al 
  0.5234790  0.2229395  0.2457935

 Al 
  0.7715076  0.9934285  0.2377457

 Al 
  0.7578796  0.2365997  0.9765098

 Al 
  0.9999950  0.4984530  0.9952589

 Al 
  0.0256398  0.7393978  0.2390030

 Al 
  0.2569056  0.4891317  0.2668754

 Al 
  0.2551483  0.7509603  0.9968393

 Al 
  0.9863150  0.9973925  0.5026187

 Al 
  0.0005470  0.2445560  0.7486362

 Al 
  0.2469544  0.0184743  0.7436921

 Al 
  0.2323387  0.2490817  0.4944941

 Al 
  0.0001250  0.5069638  0.5111158

 Al 
  0.0002042  0.7717242  0.7646169

 Al 
  0.2417541  0.4904794  0.7438877

 Al 
  0.2288674  0.7524689  0.5020011

 Al 
  0.5121764  0.4802275  0.0077719

 Al 
  0.4905834  0.7392901  0.2581828

 Al 
  0.7616888  0.5191439  0.2594698

 Al 
  0.7460485  0.7552225  0.9972390

 Al 
  0.4863893  0.9882419  0.5022227

 Al 
  0.4804836  0.2448480  0.7570108

 Al 
  0.7462539  0.0125093  0.7459532

 Al 
  0.7405574  0.2586221  0.4916440

 Al 
  0.4923358  0.5016262  0.4962539

 Al 
  0.4847173  0.7529095  0.7477476

 Al 
  0.7542684  0.5284169  0.7587496

 Al 
  0.7485186  0.7582583  0.4916465

