32 
charge = 0 
 Al 
  0.0294627  0.9944198  0.9959420

 Al 
  0.0086159  0.2572323  0.2463133

 Al 
  0.2568833  0.9972118  0.2652307

 Al 
  0.2362593  0.2609413  0.0128620

 Al 
  0.4971412  0.9866430  0.9964470

 Al 
  0.5240768  0.2234357  0.2457168

 Al 
  0.7715348  0.9927714  0.2367915

 Al 
  0.7589402  0.2374684  0.9776001

 Al 
  0.9999604  0.4988528  0.9963022

 Al 
  0.0255025  0.7395352  0.2384907

 Al 
  0.2561717  0.4891825  0.2672628

 Al 
  0.2554762  0.7512277  0.9967167

 Al 
  0.9877952  0.9985186  0.5023180

 Al 
  0.9999975  0.2443951  0.7492476

 Al 
  0.2470274  0.0187602  0.7423952

 Al 
  0.2314081  0.2481845  0.4946921

 Al 
  0.9997574  0.5075281  0.5117160

 Al 
  0.9989765  0.7712378  0.7636899

 Al 
  0.2410017  0.4906180  0.7435882

 Al 
  0.2293711  0.7519232  0.5016695

 Al 
  0.5115366  0.4807658  0.0065281

 Al 
  0.4910351  0.7397245  0.2576915

 Al 
  0.7623818  0.5191884  0.2601158

 Al 
  0.7453059  0.7561866  0.9976870

 Al 
  0.4854562  0.9879956  0.5018403

 Al 
  0.4801668  0.2460844  0.7562992

 Al 
  0.7459123  0.0117841  0.7456450

 Al 
  0.7407455  0.2581481  0.4926093

 Al 
  0.4928766  0.5012004  0.4976796

 Al 
  0.4859698  0.7530283  0.7481498

 Al 
  0.7540666  0.5276756  0.7590033

 Al 
  0.7491869  0.7581320  0.4917566

