32 
charge = 0 
 Al 
  0.0290580  0.9951153  0.9949074

 Al 
  0.0084315  0.2573672  0.2464358

 Al 
  0.2571086  0.9971511  0.2659534

 Al 
  0.2362928  0.2613720  0.0126380

 Al 
  0.4974667  0.9865341  0.9969766

 Al 
  0.5237872  0.2231783  0.2457576

 Al 
  0.7715224  0.9931006  0.2372680

 Al 
  0.7584105  0.2370242  0.9770395

 Al 
  0.9999777  0.4986486  0.9957787

 Al 
  0.0255817  0.7394597  0.2387431

 Al 
  0.2565418  0.4891515  0.2670796

 Al 
  0.2553091  0.7511039  0.9967799

 Al 
  0.9870464  0.9979494  0.5024751

 Al 
  0.0002747  0.2444693  0.7489431

 Al 
  0.2469927  0.0186303  0.7430424

 Al 
  0.2318660  0.2486362  0.4945894

 Al 
  0.9999480  0.5072459  0.5114178

 Al 
  0.9995916  0.7714927  0.7641651

 Al 
  0.2413754  0.4905401  0.7437293

 Al 
  0.2291112  0.7521954  0.5018291

 Al 
  0.5118620  0.4804886  0.0071531

 Al 
  0.4908049  0.7395005  0.2579439

 Al 
  0.7620365  0.5191760  0.2597990

 Al 
  0.7456760  0.7557015  0.9974580

 Al 
  0.4859128  0.9881132  0.5020308

 Al 
  0.4803141  0.2454581  0.7566593

 Al 
  0.7460881  0.0121591  0.7458047

 Al 
  0.7406465  0.2583882  0.4921167

 Al 
  0.4926006  0.5014182  0.4969556

 Al 
  0.4853361  0.7529739  0.7479481

 Al 
  0.7541718  0.5280593  0.7588857

 Al 
  0.7488528  0.7581951  0.4916947

