32 
charge = 0 
 Al 
  0.0243800  0.0019516  0.9870613

 Al 
  0.0057534  0.2581444  0.2479333

 Al 
  0.2582867  0.9967898  0.2712749

 Al 
  0.2378942  0.2645760  0.0099401

 Al 
  0.5003044  0.9860799  0.0017165

 Al 
  0.5203171  0.2216846  0.2459037

 Al 
  0.7712341  0.9959853  0.2416093

 Al 
  0.7535939  0.2339686  0.9734258

 Al 
  0.0001077  0.4971833  0.9912294

 Al 
  0.0253168  0.7393879  0.2412690

 Al 
  0.2595577  0.4892938  0.2644213

 Al 
  0.2541050  0.7491325  0.9972922

 Al 
  0.9811160  0.9933988  0.5033031

 Al 
  0.0025184  0.2457242  0.7460089

 Al 
  0.2466264  0.0163482  0.7489357

 Al 
  0.2366616  0.2523885  0.4940151

 Al 
  0.0010358  0.5046409  0.5084365

 Al 
  0.0050220  0.7726140  0.7673618

 Al 
  0.2450040  0.4905611  0.7457242

 Al 
  0.2274726  0.7546607  0.5037919

 Al 
  0.5143409  0.4786941  0.0125377

 Al 
  0.4891540  0.7381343  0.2595862

 Al 
  0.7588684  0.5181612  0.2564378

 Al 
  0.7490768  0.7516286  0.9958641

 Al 
  0.4909200  0.9897468  0.5038463

 Al 
  0.4825603  0.2405128  0.7594884

 Al 
  0.7471920  0.0143681  0.7467068

 Al 
  0.7401923  0.2603138  0.4885686

 Al 
  0.4906317  0.5028984  0.4915128

 Al 
  0.4803054  0.7520296  0.7461846

 Al 
  0.7546582  0.5303178  0.7569081

 Al 
  0.7457935  0.7586790  0.4917021

