32 
charge = 0 
 Al 
  0.0223256  0.0045592  0.9850614

 Al 
  0.0044726  0.2582385  0.2485743

 Al 
  0.2583189  0.9967588  0.2726226

 Al 
  0.2389399  0.2653792  0.0087718

 Al 
  0.5012438  0.9860576  0.0033501

 Al 
  0.5187701  0.2214989  0.2458888

 Al 
  0.7710398  0.9969308  0.2430758

 Al 
  0.7519442  0.2333560  0.9727959

 Al 
  0.0001101  0.4968133  0.9897394

 Al 
  0.0248045  0.7396045  0.2422108

 Al 
  0.2604116  0.4894980  0.2630736

 Al 
  0.2538191  0.7481498  0.9974989

 Al 
  0.9794478  0.9921056  0.5033686

 Al 
  0.0031719  0.2464024  0.7448839

 Al 
  0.2465509  0.0151762  0.7509319

 Al 
  0.2385921  0.2535097  0.4939755

 Al 
  0.0011621  0.5037436  0.5072818

 Al 
  0.0068115  0.7724642  0.7679880

 Al 
  0.2463925  0.4908544  0.7466623

 Al 
  0.2272004  0.7554935  0.5046904

 Al 
  0.5150265  0.4783612  0.0142530

 Al 
  0.4887629  0.7379833  0.2598807

 Al 
  0.7577781  0.5174608  0.2550975

 Al 
  0.7502549  0.7503985  0.9955510

 Al 
  0.4929892  0.9905599  0.5045258

 Al 
  0.4836803  0.2391045  0.7602841

 Al 
  0.7473838  0.0146032  0.7467638

 Al 
  0.7402022  0.2608980  0.4877184

 Al 
  0.4901898  0.5031805  0.4901304

 Al 
  0.4788699  0.7515173  0.7456166

 Al 
  0.7546260  0.5305938  0.7558079

 Al 
  0.7447069  0.7587446  0.4919261

