32 
charge = 0 
 Al 
  0.0255965  0.0003230  0.9885699

 Al 
  0.0065009  0.2580380  0.2475434

 Al 
  0.2581617  0.9968380  0.2702663

 Al 
  0.2373397  0.2639659  0.0106443

 Al 
  0.4996807  0.9861195  0.0006534

 Al 
  0.5212316  0.2218937  0.2459000

 Al 
  0.7713306  0.9953542  0.2406378

 Al 
  0.7546767  0.2344946  0.9740062

 Al 
  0.0000903  0.4974580  0.9922232

 Al 
  0.0255346  0.7393112  0.2406713

 Al 
  0.2589426  0.4892010  0.2651812

 Al 
  0.2543265  0.7496993  0.9971734

 Al 
  0.9823103  0.9943208  0.5032053

 Al 
  0.0020581  0.2453492  0.7467056

 Al 
  0.2467007  0.0170177  0.7476165

 Al 
  0.2354784  0.2516064  0.4940857

 Al 
  0.0008886  0.5052312  0.5091555

 Al 
  0.0038278  0.7725595  0.7668222

 Al 
  0.2441414  0.4904460  0.7451723

 Al 
  0.2277313  0.7541099  0.5032684

 Al 
  0.5138508  0.4789887  0.0113757

 Al 
  0.4894560  0.7383273  0.2593201

 Al 
  0.7595824  0.5185263  0.2572657

 Al 
  0.7483083  0.7524838  0.9961376

 Al 
  0.4896602  0.9892864  0.5034194

 Al 
  0.4819192  0.2415116  0.7589191

 Al 
  0.7470175  0.0140661  0.7465955

 Al 
  0.7402294  0.2599141  0.4892258

 Al 
  0.4909868  0.5026484  0.4925548

 Al 
  0.4813239  0.7523130  0.7465682

 Al 
  0.7546235  0.5299998  0.7575071

 Al 
  0.7464915  0.7585986  0.4916155

