32 
charge = 0 
 Al 
  0.0199557  0.0073969  0.9833857

 Al 
  0.0030060  0.2582496  0.2492760

 Al 
  0.2581555  0.9967811  0.2737798

 Al 
  0.2402455  0.2660438  0.0074724

 Al 
  0.5021954  0.9860551  0.0050517

 Al 
  0.5169868  0.2214705  0.2458591

 Al 
  0.7707750  0.9978825  0.2445510

 Al 
  0.7502537  0.2329637  0.9724667

 Al 
  0.0000755  0.4964816  0.9882432

 Al 
  0.0240483  0.7399473  0.2432095

 Al 
  0.2611715  0.4897790  0.2614475

 Al 
  0.2535914  0.7470051  0.9977625

 Al 
  0.9779293  0.9909225  0.5033427

 Al 
  0.0037795  0.2472328  0.7436327

 Al 
  0.2465447  0.0138038  0.7529553

 Al 
  0.2407430  0.2545753  0.4940226

 Al 
  0.0011806  0.5028291  0.5060183

 Al 
  0.0086023  0.7720138  0.7683865

 Al 
  0.2479209  0.4912987  0.7477278

 Al 
  0.2270742  0.7563338  0.5057361

 Al 
  0.5156564  0.4781620  0.0159299

 Al 
  0.4884449  0.7380192  0.2600453

 Al 
  0.7566630  0.5165660  0.2536310

 Al 
  0.7514764  0.7492339  0.9953629

 Al 
  0.4952898  0.9915388  0.5052634

 Al 
  0.4849983  0.2377964  0.7610106

 Al 
  0.7474964  0.0145599  0.7466821

 Al 
  0.7402888  0.2614747  0.4870279

 Al 
  0.4898631  0.5033451  0.4889696

 Al 
  0.4775432  0.7508923  0.7450559

 Al 
  0.7544862  0.5306210  0.7544317

 Al 
  0.7435585  0.7587236  0.4922628

