32 
charge = 0 
 Al 
  0.0190894  0.0083981  0.9829043

 Al 
  0.0024764  0.2582347  0.2495223

 Al 
  0.2580541  0.9968021  0.2741226

 Al 
  0.2407393  0.2662306  0.0070096

 Al 
  0.5025160  0.9860551  0.0056359

 Al 
  0.5163358  0.2214989  0.2458480

 Al 
  0.7706673  0.9982018  0.2450423

 Al 
  0.7496819  0.2328857  0.9724271

 Al 
  0.0000545  0.4963789  0.9877432

 Al 
  0.0237389  0.7400896  0.2435548

 Al 
  0.2614004  0.4898904  0.2608386

 Al 
  0.2535283  0.7465880  0.9978664

 Al 
  0.9774590  0.9905537  0.5033142

 Al 
  0.0039713  0.2475459  0.7431835

 Al 
  0.2465633  0.0133026  0.7536360

 Al 
  0.2415128  0.2549168  0.4940597

 Al 
  0.0011645  0.5025222  0.5055703

 Al 
  0.0092000  0.7717922  0.7684681

 Al 
  0.2484642  0.4914806  0.7481102

 Al 
  0.2270667  0.7566160  0.5061185

 Al 
  0.5158544  0.4781273  0.0164794

 Al 
  0.4883558  0.7380773  0.2600713

 Al 
  0.7562856  0.5162232  0.2531137

 Al 
  0.7518947  0.7488614  0.9953294

 Al 
  0.4961103  0.9919063  0.5055220

 Al 
  0.4854834  0.2373831  0.7612358

 Al 
  0.7475174  0.0144795  0.7466227

 Al 
  0.7403346  0.2616653  0.4868348

 Al 
  0.4897802  0.5033724  0.4886330

 Al 
  0.4771274  0.7506571  0.7448703

 Al 
  0.7544144  0.5305715  0.7539070

 Al 
  0.7431600  0.7586914  0.4924014

