32 
charge = 0 
 Al 
  0.0181835  0.0094278  0.9824625

 Al 
  0.0019294  0.2582112  0.2497748

 Al 
  0.2579303  0.9968294  0.2744443

 Al 
  0.2412616  0.2664002  0.0065331

 Al 
  0.5028377  0.9860527  0.0062287

 Al 
  0.5156564  0.2215460  0.2458381

 Al 
  0.7705497  0.9985224  0.2455349

 Al 
  0.7491065  0.2328362  0.9724234

 Al 
  0.0000285  0.4962799  0.9872432

 Al 
  0.0233986  0.7402480  0.2439062

 Al 
  0.2616145  0.4900116  0.2601975

 Al 
  0.2534714  0.7461537  0.9979815

 Al 
  0.9770061  0.9901985  0.5032771

 Al 
  0.0041570  0.2478763  0.7427145

 Al 
  0.2465930  0.0127791  0.7543203

 Al 
  0.2423110  0.2552535  0.4941080

 Al 
  0.0011361  0.5022128  0.5051099

 Al 
  0.0097953  0.7715336  0.7685251

 Al 
  0.2490273  0.4916799  0.7485063

 Al 
  0.2270779  0.7568969  0.5065170

 Al 
  0.5160450  0.4781100  0.0170214

 Al 
  0.4882741  0.7381590  0.2600824

 Al 
  0.7559056  0.5158581  0.2525828

 Al 
  0.7523192  0.7484964  0.9953121

 Al 
  0.4969568  0.9922937  0.5057881

 Al 
  0.4859908  0.2369808  0.7614512

 Al 
  0.7475298  0.0143656  0.7465460

 Al 
  0.7403891  0.2618571  0.4866616

 Al 
  0.4897109  0.5033835  0.4883248

 Al 
  0.4767239  0.7504096  0.7446871

 Al 
  0.7543290  0.5304911  0.7533476

 Al 
  0.7427528  0.7586456  0.4925523

