32 
charge = 0 
 Al 
  0.0162517  0.0115687  0.9817039

 Al 
  0.0007834  0.2581333  0.2502921

 Al 
  0.2576085  0.9969049  0.2750210

 Al 
  0.2423902  0.2666799  0.0055418

 Al 
  0.5034837  0.9860403  0.0074402

 Al 
  0.5142134  0.2217007  0.2458232

 Al 
  0.7702812  0.9991671  0.2465125

 Al 
  0.7479481  0.2328202  0.9725274

 Al 
  0.9999592  0.4960905  0.9862445

 Al 
  0.0226288  0.7406057  0.2446253

 Al 
  0.2619982  0.4902789  0.2588127

 Al 
  0.2533785  0.7452341  0.9982464

 Al 
  0.9761633  0.9895339  0.5031756

 Al 
  0.0045109  0.2485954  0.7417207

 Al 
  0.2466920  0.0116752  0.7556953

 Al 
  0.2439879  0.2559044  0.4942367

 Al 
  0.0010482  0.5015965  0.5041458

 Al 
  0.0109759  0.7709049  0.7685585

 Al 
  0.2502067  0.4921291  0.7493292

 Al 
  0.2271571  0.7574551  0.5073647

 Al 
  0.5164064  0.4781286  0.0180771

 Al 
  0.4881355  0.7383966  0.2600601

 Al 
  0.7551433  0.5150587  0.2514814

 Al 
  0.7531855  0.7477971  0.9953233

 Al 
  0.4987216  0.9931352  0.5063400

 Al 
  0.4870699  0.2362136  0.7618497

 Al 
  0.7475298  0.0140340  0.7463442

 Al 
  0.7405215  0.2622395  0.4863744

 Al 
  0.4896169  0.5033612  0.4877914

 Al 
  0.4759653  0.7498738  0.7443245

 Al 
  0.7541174  0.5302349  0.7521237

 Al 
  0.7419187  0.7585070  0.4928914

