32 
charge = 0 
 Al 
  0.0025246  0.0252104  0.9809217

 Al 
  0.9936142  0.2569328  0.2532956

 Al 
  0.2538204  0.9978553  0.2764133

 Al 
  0.2504888  0.2663358  0.9992773

 Al 
  0.5069229  0.9854487  0.0145958

 Al 
  0.5041000  0.2243961  0.2461549

 Al 
  0.7676278  0.0027177  0.2514975

 Al 
  0.7416960  0.2351393  0.9761188

 Al 
  0.9990991  0.4951871  0.9810195

 Al 
  0.0158990  0.7436637  0.2488528

 Al 
  0.2625563  0.4924682  0.2487117

 Al 
  0.2534045  0.7390921  0.0009727

 Al 
  0.9735236  0.9873038  0.5020977

 Al 
  0.0059155  0.2539565  0.7345725

 Al 
  0.2485409  0.0043822  0.7634436

 Al 
  0.2553042  0.2588770  0.4959148

 Al 
  0.9999505  0.4984444  0.4977043

 Al 
  0.0168606  0.7644993  0.7668754

 Al 
  0.2581110  0.4957552  0.7543958

 Al 
  0.2293055  0.7602173  0.5129511

 Al 
  0.5176291  0.4799181  0.0225781

 Al 
  0.4880501  0.7418234  0.2589414

 Al 
  0.7510358  0.5089104  0.2447503

 Al 
  0.7583857  0.7448196  0.9965373

 Al 
  0.5099141  0.9995273  0.5096938

 Al 
  0.4945411  0.2331543  0.7629511

 Al 
  0.7470521  0.0094179  0.7442206

 Al 
  0.7418011  0.2644188  0.4865118

 Al 
  0.4903371  0.5019826  0.4871021

 Al 
  0.4734469  0.7460138  0.7426551

 Al 
  0.7517276  0.5260284  0.7426749

 Al 
  0.7368113  0.7561061  0.4955968

