32 
charge = 0 
 Al 
  0.0060603  0.0219271  0.9805294

 Al 
  0.9952824  0.2573301  0.2526298

 Al 
  0.2550047  0.9975558  0.2764096

 Al 
  0.2484209  0.2667714  0.0007797

 Al 
  0.5062051  0.9857024  0.0129560

 Al 
  0.5066866  0.2234592  0.2459742

 Al 
  0.7684508  0.0019430  0.2504876

 Al 
  0.7430177  0.2342062  0.9748094

 Al 
  0.9993726  0.4953802  0.9821036

 Al 
  0.0178147  0.7428135  0.2478862

 Al 
  0.2627333  0.4918630  0.2513267

 Al 
  0.2533068  0.7406020  0.0001176

 Al 
  0.9737278  0.9875291  0.5023996

 Al 
  0.0057002  0.2525506  0.7364512

 Al 
  0.2478937  0.0061544  0.7616900

 Al 
  0.2524689  0.2583288  0.4953740

 Al 
  0.0002648  0.4990656  0.4993292

 Al 
  0.0157158  0.7663977  0.7675350

 Al 
  0.2561383  0.4947911  0.7532288

 Al 
  0.2285209  0.7596864  0.5116158

 Al 
  0.5175127  0.4791978  0.0218875

 Al 
  0.4879499  0.7407022  0.2593275

 Al 
  0.7519046  0.5105601  0.2463034

 Al 
  0.7571717  0.7453195  0.9960943

 Al 
  0.5072595  0.9978145  0.5089315

 Al 
  0.4926588  0.2336097  0.7629251

 Al 
  0.7472130  0.0109104  0.7448109

 Al 
  0.7414398  0.2639189  0.4861777

 Al 
  0.4899584  0.5024937  0.4868831

 Al 
  0.4736560  0.7469989  0.7429422

 Al 
  0.7524801  0.5274590  0.7452007

 Al 
  0.7380105  0.7569563  0.4948802

