32 
charge = 0 
 Al 
  0.0072546  0.0207836  0.9804775

 Al 
  0.9958764  0.2574514  0.2523873

 Al 
  0.2553747  0.9974618  0.2763588

 Al 
  0.2477179  0.2668655  0.0013032

 Al 
  0.5059366  0.9857705  0.0123731

 Al 
  0.5075615  0.2231808  0.2459309

 Al 
  0.7687033  0.0016620  0.2501077

 Al 
  0.7435077  0.2339402  0.9744233

 Al 
  0.9994579  0.4954482  0.9825083

 Al 
  0.0184335  0.7425350  0.2475422

 Al 
  0.2627444  0.4916650  0.2522103

 Al 
  0.2532870  0.7411242  0.9998540

 Al 
  0.9738676  0.9876566  0.5025011

 Al 
  0.0056074  0.2520779  0.7370774

 Al 
  0.2477006  0.0067719  0.7610675

 Al 
  0.2514999  0.2581135  0.4952082

 Al 
  0.0003713  0.4993070  0.4998800

 Al 
  0.0152728  0.7670041  0.7677281

 Al 
  0.2554626  0.4944669  0.7528117

 Al 
  0.2282907  0.7594785  0.5111455

 Al 
  0.5174422  0.4789961  0.0215794

 Al 
  0.4879338  0.7403582  0.2594476

 Al 
  0.7522264  0.5111071  0.2468578

 Al 
  0.7567447  0.7455262  0.9959606

 Al 
  0.5063252  0.9972464  0.5086567

 Al 
  0.4920152  0.2338127  0.7628768

 Al 
  0.7472662  0.0113707  0.7450101

 Al 
  0.7413210  0.2637419  0.4861084

 Al 
  0.4898582  0.5026447  0.4868620

 Al 
  0.4737959  0.7473355  0.7430622

 Al 
  0.7527127  0.5278897  0.7460423

 Al 
  0.7384337  0.7572063  0.4946389

