32 
charge = 0 
 Al 
  0.0002599  0.0272326  0.9813574

 Al 
  0.9926217  0.2566482  0.2536805

 Al 
  0.2529850  0.9980645  0.2762982

 Al 
  0.2517982  0.2659225  0.9983479

 Al 
  0.5073227  0.9852433  0.0155747

 Al 
  0.5024442  0.2250928  0.2463170

 Al 
  0.7670313  0.0031669  0.2520531

 Al 
  0.7409509  0.2358596  0.9770915

 Al 
  0.9989048  0.4950634  0.9804143

 Al 
  0.0146008  0.7442280  0.2494332

 Al 
  0.2623224  0.4928716  0.2470422

 Al 
  0.2534974  0.7381565  0.0015878

 Al 
  0.9735632  0.9872816  0.5019071

 Al 
  0.0060084  0.2548624  0.7333449

 Al 
  0.2490149  0.0032907  0.7645092

 Al 
  0.2570999  0.2591555  0.4963034

 Al 
  0.9997525  0.4981226  0.4966623

 Al 
  0.0174546  0.7632036  0.7663890

 Al 
  0.2593572  0.4963665  0.7550864

 Al 
  0.2298983  0.7604908  0.5137481

 Al 
  0.5176278  0.4804886  0.0228343

 Al 
  0.4881590  0.7426217  0.2586766

 Al 
  0.7505470  0.5078239  0.2438258

 Al 
  0.7591221  0.7445857  0.9968504

 Al 
  0.5115205  0.0006522  0.5101344

 Al 
  0.4957316  0.2329798  0.7628706

 Al 
  0.7469506  0.0083560  0.7438567

 Al 
  0.7420375  0.2647233  0.4868286

 Al 
  0.4906490  0.5016088  0.4873620

 Al 
  0.4734914  0.7453913  0.7425288

 Al 
  0.7511893  0.5249790  0.7410301

 Al 
  0.7360848  0.7554651  0.4960547

