32 
charge = 0 
 Al 
  0.9970670  0.0299676  0.9822162

 Al 
  0.9913358  0.2562027  0.2541632

 Al 
  0.2516967  0.9983850  0.2759727

 Al 
  0.2536211  0.2651354  0.9970769

 Al 
  0.5077966  0.9848918  0.0168494

 Al 
  0.5001077  0.2262301  0.2466177

 Al 
  0.7660735  0.0037325  0.2527090

 Al 
  0.7400450  0.2370551  0.9786570

 Al 
  0.9986003  0.4948790  0.9796866

 Al 
  0.0126566  0.7450522  0.2501992

 Al 
  0.2618150  0.4934657  0.2447057

 Al 
  0.2536706  0.7368880  0.0025568

 Al 
  0.9738639  0.9874239  0.5016484

 Al 
  0.0060789  0.2561433  0.7315776

 Al 
  0.2497698  0.0018217  0.7659460

 Al 
  0.2596022  0.2594500  0.4969160

 Al 
  0.9994901  0.4977910  0.4951772

 Al 
  0.0180845  0.7612631  0.7656218

 Al 
  0.2610861  0.4972056  0.7559737

 Al 
  0.2308685  0.7607755  0.5147691

 Al 
  0.5175115  0.4814687  0.0229036

 Al 
  0.4883805  0.7438580  0.2582954

 Al 
  0.7499530  0.5062447  0.2426316

 Al 
  0.7600997  0.7443753  0.9973232

 Al 
  0.5136404  0.0022796  0.5106777

 Al 
  0.4973887  0.2329068  0.7626108

 Al 
  0.7468244  0.0067039  0.7433902

 Al 
  0.7423779  0.2651280  0.4874239

 Al 
  0.4911873  0.5010222  0.4878855

 Al 
  0.4738367  0.7445374  0.7424422

 Al 
  0.7503478  0.5232984  0.7386850

 Al 
  0.7351195  0.7544206  0.4966908

