32 
charge = 0 
 Al 
  0.9941538  0.0323350  0.9832682

 Al 
  0.9903012  0.2557472  0.2545307

 Al 
  0.2503861  0.9987105  0.2754864

 Al 
  0.2552609  0.2641664  0.9959507

 Al 
  0.5081258  0.9845057  0.0178902

 Al 
  0.4979642  0.2274627  0.2469779

 Al 
  0.7650389  0.0041743  0.2531682

 Al 
  0.7393768  0.2383694  0.9803228

 Al 
  0.9982847  0.4946810  0.9791706

 Al 
  0.0107359  0.7458368  0.2508453

 Al 
  0.2611381  0.4940349  0.2426006

 Al 
  0.2538760  0.7357915  0.0035667

 Al 
  0.9744245  0.9877556  0.5014343

 Al 
  0.0060777  0.2573140  0.7299119

 Al 
  0.2505569  0.0005619  0.7672058

 Al 
  0.2618608  0.2596022  0.4975595

 Al 
  0.9992810  0.4976424  0.4937924

 Al 
  0.0184087  0.7593560  0.7648297

 Al 
  0.2626368  0.4979271  0.7566804

 Al 
  0.2319242  0.7609128  0.5155648

 Al 
  0.5172665  0.4825887  0.0226078

 Al 
  0.4886664  0.7451116  0.2579538

 Al 
  0.7495186  0.5047337  0.2416638

 Al 
  0.7609240  0.7443134  0.9977798

 Al 
  0.5153965  0.0038179  0.5110663

 Al 
  0.4988812  0.2330442  0.7622011

 Al 
  0.7467427  0.0050072  0.7430437

 Al 
  0.7426922  0.2654683  0.4881392

 Al 
  0.4917950  0.5004257  0.4885266

 Al 
  0.4745136  0.7437899  0.7424793

 Al 
  0.7494765  0.5215150  0.7365192

 Al 
  0.7343127  0.7532969  0.4972588

