32 
charge = 0 
 Al 
  0.9981016  0.0290976  0.9819056

 Al 
  0.9917368  0.2563524  0.2540147

 Al 
  0.2521298  0.9982786  0.2761002

 Al 
  0.2530333  0.2654188  0.9974840

 Al 
  0.5076556  0.9850144  0.0164509

 Al 
  0.5008651  0.2258403  0.2465101

 Al 
  0.7664014  0.0035580  0.2525123

 Al 
  0.7403198  0.2366418  0.9781224

 Al 
  0.9987030  0.4949408  0.9799057

 Al 
  0.0133026  0.7447812  0.2499579

 Al 
  0.2620044  0.4932701  0.2454594

 Al 
  0.2536087  0.7372915  0.0022289

 Al 
  0.9737327  0.9873533  0.5017301

 Al 
  0.0060641  0.2557287  0.7321556

 Al 
  0.2495149  0.0022883  0.7654881

 Al 
  0.2587954  0.2593683  0.4967081

 Al 
  0.9995718  0.4978813  0.4956611

 Al 
  0.0179088  0.7619066  0.7658816

 Al 
  0.2605292  0.4969370  0.7556990

 Al 
  0.2305344  0.7606975  0.5144535

 Al 
  0.5175647  0.4811259  0.0229221

 Al 
  0.4883001  0.7434434  0.2584191

 Al 
  0.7501324  0.5067633  0.2430041

 Al 
  0.7597916  0.7444285  0.9971672

 Al 
  0.5129746  0.0017462  0.5105131

 Al 
  0.4968541  0.2329068  0.7627147

 Al 
  0.7468615  0.0072595  0.7435337

 Al 
  0.7422677  0.2649993  0.4872110

 Al 
  0.4909992  0.5012190  0.4876962

 Al 
  0.4736845  0.7448109  0.7424571

 Al 
  0.7506324  0.5238713  0.7394485

 Al 
  0.7354240  0.7547795  0.4964866

