32 
charge = 0 
 Al 
  0.9906923  0.0349599  0.9849030

 Al 
  0.9892877  0.2551297  0.2548525

 Al 
  0.2486152  0.9991486  0.2746151

 Al 
  0.2571816  0.2626120  0.9946438

 Al 
  0.5083573  0.9839674  0.0189347

 Al 
  0.4953901  0.2292535  0.2475360

 Al 
  0.7635204  0.0045876  0.2535221

 Al 
  0.7387988  0.2403000  0.9826865

 Al 
  0.9978454  0.4943740  0.9787795

 Al 
  0.0081976  0.7468269  0.2515383

 Al 
  0.2599933  0.4947552  0.2401577

 Al 
  0.2541929  0.7345886  0.0049626

 Al 
  0.9755247  0.9884585  0.5012277

 Al 
  0.0059849  0.2587100  0.7278464

 Al 
  0.2516348  0.9991869  0.7686575

 Al 
  0.2645129  0.2596022  0.4984728

 Al 
  0.9991003  0.4977204  0.4920796

 Al 
  0.0183988  0.7568734  0.7637456

 Al 
  0.2644399  0.4986882  0.7573610

 Al 
  0.2334699  0.7608868  0.5162702

 Al 
  0.5167516  0.4843102  0.0216672

 Al 
  0.4891466  0.7467774  0.2575924

 Al 
  0.7491560  0.5028155  0.2406923

 Al 
  0.7617952  0.7444223  0.9983441

 Al 
  0.5171984  0.0057324  0.5113423

 Al 
  0.5006485  0.2335293  0.7614437

 Al 
  0.7467229  0.0026905  0.7428036

 Al 
  0.7430721  0.2658136  0.4892555

 Al 
  0.4926959  0.4996411  0.4895092

 Al 
  0.4759306  0.7429620  0.7427182

 Al 
  0.7482786  0.5189805  0.7339278

 Al 
  0.7334674  0.7517004  0.4979085

