32 
charge = 0 
 Al 
  0.9960646  0.0307967  0.9825479

 Al 
  0.9909633  0.2560517  0.2542981

 Al 
  0.2512623  0.9984939  0.2758279

 Al 
  0.2541879  0.2648309  0.9966858

 Al 
  0.5079216  0.9847668  0.0172219

 Al 
  0.4993726  0.2266311  0.2467316

 Al 
  0.7657381  0.0038934  0.2528823

 Al 
  0.7397975  0.2374808  0.9792028

 Al 
  0.9984964  0.4948159  0.9794924

 Al 
  0.0120143  0.7453183  0.2504282

 Al 
  0.2616071  0.4936575  0.2439780

 Al 
  0.2537362  0.7365031  0.0028897

 Al 
  0.9740236  0.9875142  0.5015717

 Al 
  0.0060863  0.2565455  0.7310108

 Al 
  0.2500297  0.0013786  0.7663841

 Al 
  0.2603831  0.2595156  0.4971276

 Al 
  0.9994134  0.4977216  0.4947045

 Al 
  0.0182256  0.7606220  0.7653606

 Al 
  0.2616232  0.4974593  0.7562299

 Al 
  0.2312113  0.7608373  0.5150599

 Al 
  0.5174434  0.4818264  0.0228442

 Al 
  0.4884684  0.7442750  0.2581753

 Al 
  0.7497909  0.5057336  0.2422838

 Al 
  0.7603918  0.7443394  0.9974778

 Al 
  0.5142666  0.0028031  0.5108237

 Al 
  0.4979036  0.2329291  0.7624907

 Al 
  0.7467922  0.0061420  0.7432602

 Al 
  0.7424855  0.2652480  0.4876491

 Al 
  0.4913829  0.5008230  0.4880885

 Al 
  0.4740248  0.7442763  0.7424410

 Al 
  0.7500606  0.5227155  0.7379424

 Al 
  0.7348337  0.7540543  0.4968888

