32 
charge = 0 
 Al 
  0.9837681  0.0393409  0.9899757

 Al 
  0.9883632  0.2535110  0.2549193

 Al 
  0.2439075  0.0003341  0.2713269

 Al 
  0.2610205  0.2573524  0.9920672

 Al 
  0.5080528  0.9827595  0.0200151

 Al 
  0.4899745  0.2347260  0.2491783

 Al 
  0.7586803  0.0048995  0.2534491

 Al 
  0.7384102  0.2462366  0.9895240

 Al 
  0.9966276  0.4931736  0.9791533

 Al 
  0.0015544  0.7491585  0.2525580

 Al 
  0.2559106  0.4963579  0.2356059

 Al 
  0.2551049  0.7327546  0.0087075

 Al 
  0.9798921  0.9914039  0.5011608

 Al 
  0.0053921  0.2615663  0.7232043

 Al 
  0.2544800  0.9969123  0.7715101

 Al 
  0.2696612  0.2586407  0.5012388

 Al 
  0.9992228  0.4993045  0.4882048

 Al 
  0.0163519  0.7506497  0.7607321

 Al 
  0.2678952  0.4995718  0.7579365

 Al 
  0.2382815  0.7598473  0.5163321

 Al 
  0.5145216  0.4900648  0.0166291

 Al 
  0.4909274  0.7508824  0.2573301

 Al 
  0.7490359  0.4982266  0.2394374

 Al 
  0.7629833  0.7453938  0.9995446

 Al 
  0.5193332  0.0099933  0.5108064

 Al 
  0.5044181  0.2362074  0.7585837

 Al 
  0.7471969  0.9964061  0.7434582

 Al 
  0.7439050  0.2660376  0.4928444

 Al 
  0.4953579  0.4978033  0.4923630

 Al 
  0.4822843  0.7416625  0.7443208

 Al 
  0.7450757  0.5115526  0.7288166

 Al 
  0.7324093  0.7472662  0.4990632

