32 
charge = 0 
 Al 
  0.9883781  0.0365786  0.9862804

 Al 
  0.9887790  0.2546557  0.2549775

 Al 
  0.2472576  0.9994864  0.2738033

 Al 
  0.2584563  0.2612482  0.9937812

 Al 
  0.5083931  0.9835689  0.0194805

 Al 
  0.4936352  0.2307262  0.2480001

 Al 
  0.7622482  0.0047819  0.2536248

 Al 
  0.7385525  0.2418952  0.9845812

 Al 
  0.9975001  0.4940906  0.9786929

 Al 
  0.0062769  0.7475385  0.2519454

 Al 
  0.2589587  0.4952651  0.2385723

 Al 
  0.2544540  0.7338659  0.0060467

 Al 
  0.9765952  0.9891639  0.5011361

 Al 
  0.0058561  0.2596493  0.7263898

 Al 
  0.2524640  0.9983528  0.7696129

 Al 
  0.2662628  0.2594562  0.4992154

 Al 
  0.9990458  0.4979840  0.4908742

 Al 
  0.0180808  0.7550307  0.7629016

 Al 
  0.2656180  0.4991052  0.7576927

 Al 
  0.2347495  0.7607185  0.5165400

 Al 
  0.5162257  0.4857953  0.0205633

 Al 
  0.4895871  0.7480187  0.2574080

 Al 
  0.7490211  0.5014232  0.2401626

 Al 
  0.7622915  0.7446216  0.9987340

 Al 
  0.5181773  0.0070789  0.5113670

 Al 
  0.5018452  0.2341109  0.7607297

 Al 
  0.7467811  0.0008960  0.7428036

 Al 
  0.7433308  0.2659868  0.4902109

 Al 
  0.4934347  0.4990669  0.4903161

 Al 
  0.4773959  0.7424608  0.7430399

 Al 
  0.7473516  0.5169410  0.7321952

 Al 
  0.7329947  0.7504369  0.4983219

