32 
charge = 0 
 Al 
  0.9849785  0.0386912  0.9888520

 Al 
  0.9883743  0.2538439  0.2549824

 Al 
  0.2448963  0.0000817  0.2721239

 Al 
  0.2603386  0.2585714  0.9925165

 Al 
  0.5082088  0.9829650  0.0199668

 Al 
  0.4909670  0.2334909  0.2488342

 Al 
  0.7597965  0.0049119  0.2535506

 Al 
  0.7384028  0.2448988  0.9880278

 Al 
  0.9968863  0.4934793  0.9789255

 Al 
  0.0029503  0.7486968  0.2524293

 Al 
  0.2568759  0.4960621  0.2363522

 Al 
  0.2549168  0.7329885  0.0079291

 Al 
  0.9788352  0.9906787  0.5011175

 Al 
  0.0055468  0.2610551  0.7240879

 Al 
  0.2538921  0.9972637  0.7710113

 Al 
  0.2687850  0.2589426  0.5006114

 Al 
  0.9991250  0.4988243  0.4889535

 Al 
  0.0169855  0.7519232  0.7613881

 Al 
  0.2673073  0.4995112  0.7579414

 Al 
  0.2371826  0.7601653  0.5165103

 Al 
  0.5150785  0.4887171  0.0179508

 Al 
  0.4904955  0.7500693  0.2572967

 Al 
  0.7489939  0.4991374  0.2395822

 Al 
  0.7628508  0.7451351  0.9993243

 Al 
  0.5191599  0.0091926  0.5110564

 Al 
  0.5036991  0.2354995  0.7592656

 Al 
  0.7470360  0.9977390  0.7431736

 Al 
  0.7437416  0.2660809  0.4920338

 Al 
  0.4947824  0.4981523  0.4917591

 Al 
  0.4806656  0.7418370  0.7438741

 Al 
  0.7457403  0.5131949  0.7296854

 Al 
  0.7325009  0.7482018  0.4988825

