32 
charge = 0 
 Al 
  0.9876541  0.0370576  0.9867667

 Al 
  0.9886553  0.2544961  0.2549985

 Al 
  0.2467960  0.9996015  0.2735013

 Al 
  0.2588548  0.2607544  0.9935115

 Al 
  0.5083808  0.9834402  0.0196203

 Al 
  0.4930783  0.2312460  0.2481622

 Al 
  0.7617940  0.0048265  0.2536322

 Al 
  0.7384993  0.2424595  0.9852396

 Al 
  0.9973813  0.4939842  0.9787015

 Al 
  0.0056272  0.7477711  0.2520605

 Al 
  0.2585788  0.4954309  0.2380872

 Al 
  0.2545443  0.7336580  0.0064155

 Al 
  0.9769974  0.9894337  0.5011188

 Al 
  0.0058042  0.2599463  0.7259183

 Al 
  0.2527449  0.9981078  0.7699111

 Al 
  0.2668049  0.2593820  0.4994777

 Al 
  0.9990434  0.4981115  0.4904819

 Al 
  0.0179187  0.7544156  0.7626108

 Al 
  0.2659819  0.4992154  0.7577731

 Al 
  0.2352037  0.7606356  0.5165821

 Al 
  0.5160240  0.4863311  0.0201191

 Al 
  0.4897505  0.7484295  0.2573647

 Al 
  0.7489976  0.5009641  0.2400191

 Al 
  0.7624301  0.7447069  0.9988577

 Al 
  0.5184372  0.0075145  0.5113410

 Al 
  0.5022276  0.2343461  0.7604648

 Al 
  0.7468158  0.0002822  0.7428395

 Al 
  0.7434149  0.2660264  0.4905524

 Al 
  0.4936934  0.4988800  0.4905958

 Al 
  0.4779640  0.7423147  0.7431761

 Al 
  0.7470360  0.5162294  0.7316556

 Al 
  0.7328659  0.7500025  0.4984469

