32 
charge = 0 
 Al 
  0.9898953  0.0355304  0.9853473

 Al 
  0.9890958  0.2549725  0.2549057

 Al 
  0.2481659  0.9992599  0.2743602

 Al 
  0.2576197  0.2621764  0.9943468

 Al 
  0.5083820  0.9838325  0.0191389

 Al 
  0.4947899  0.2297312  0.2476870

 Al 
  0.7631107  0.0046619  0.2535704

 Al 
  0.7387011  0.2408160  0.9833053

 Al 
  0.9977315  0.4942849  0.9787313

 Al 
  0.0075603  0.7470670  0.2516843

 Al 
  0.2596654  0.4949272  0.2396070

 Al 
  0.2542783  0.7343312  0.0053203

 Al 
  0.9758589  0.9886763  0.5011905

 Al 
  0.0059477  0.2590317  0.7273526

 Al 
  0.2519096  0.9988911  0.7689867

 Al 
  0.2651168  0.2595664  0.4987142

 Al 
  0.9990743  0.4977885  0.4916724

 Al 
  0.0183221  0.7562596  0.7634684

 Al 
  0.2648470  0.4988416  0.7574873

 Al 
  0.2338832  0.7608448  0.5163841

 Al 
  0.5165895  0.4847854  0.0213381

 Al 
  0.4892852  0.7471920  0.2575231

 Al 
  0.7490991  0.5023477  0.2404980

 Al 
  0.7619747  0.7444780  0.9984778

 Al 
  0.5175585  0.0061891  0.5113682

 Al 
  0.5010581  0.2337025  0.7612197

 Al 
  0.7467353  0.0020989  0.7427862

 Al 
  0.7431600  0.2658804  0.4895624

 Al 
  0.4929360  0.4994480  0.4897728

 Al 
  0.4763799  0.7427838  0.7428110

 Al 
  0.7479729  0.5183159  0.7333313

 Al 
  0.7332941  0.7512858  0.4980533

