32 
charge = 0 
 Al 
  0.9802535  0.0406700  0.9942231

 Al 
  0.9889894  0.2523662  0.2544540

 Al 
  0.2402888  0.0012772  0.2679459

 Al 
  0.2631095  0.2525024  0.9907938

 Al 
  0.5071605  0.9823016  0.0195139

 Al 
  0.4868546  0.2396775  0.2503341

 Al 
  0.7541297  0.0045839  0.2528699

 Al 
  0.7385996  0.2515247  0.9952453

 Al 
  0.9956859  0.4917962  0.9805567

 Al 
  0.9963653  0.7507896  0.2527090

 Al 
  0.2519776  0.4972081  0.2336852

 Al 
  0.2557114  0.7325553  0.0114400

 Al 
  0.9842409  0.9944260  0.5015606

 Al 
  0.0047411  0.2631231  0.7203356

 Al 
  0.2565578  0.9959358  0.7729419

 Al 
  0.2720484  0.2571729  0.5037733

 Al 
  0.9998800  0.5016163  0.4856703

 Al 
  0.0133224  0.7460732  0.7581667

 Al 
  0.2695547  0.4993280  0.7574464

 Al 
  0.2427392  0.7583127  0.5149733

 Al 
  0.5121591  0.4955856  0.0108547

 Al 
  0.4927405  0.7536223  0.2578251

 Al 
  0.7493107  0.4950819  0.2392839

 Al 
  0.7630117  0.7465039  0.0002252

 Al 
  0.5189793  0.0125192  0.5093931

 Al 
  0.5069291  0.2393718  0.7558190

 Al 
  0.7480199  0.9914497  0.7450832

 Al 
  0.7445164  0.2654448  0.4959495

 Al 
  0.4974444  0.4966747  0.4945027

 Al 
  0.4893112  0.7414200  0.7464210

 Al 
  0.7427405  0.5051668  0.7265222

 Al 
  0.7326259  0.7439174  0.4994815

