32 
charge = 0 
 Al 
  0.9806792  0.0405772  0.9935993

 Al 
  0.9888397  0.2525222  0.2545381

 Al 
  0.2408123  0.0011386  0.2684818

 Al 
  0.2628422  0.2532387  0.9909410

 Al 
  0.5073177  0.9823375  0.0196488

 Al 
  0.4872605  0.2389152  0.2501794

 Al 
  0.7548352  0.0046545  0.2529689

 Al 
  0.7385637  0.2507215  0.9943926

 Al 
  0.9958208  0.4920227  0.9803005

 Al 
  0.9971264  0.7505557  0.2527152

 Al 
  0.2525828  0.4971091  0.2338882

 Al 
  0.2556346  0.7325194  0.0110589

 Al 
  0.9835689  0.9939570  0.5014789

 Al 
  0.0048426  0.2629263  0.7207143

 Al 
  0.2562645  0.9960571  0.7727736

 Al 
  0.2717799  0.2574179  0.5033823

 Al 
  0.9997574  0.5012326  0.4860193

 Al 
  0.0138236  0.7467291  0.7585577

 Al 
  0.2693580  0.4994047  0.7575615

 Al 
  0.2420499  0.7585676  0.5152332

 Al 
  0.5125291  0.4947305  0.0117729

 Al 
  0.4924558  0.7532498  0.2577199

 Al 
  0.7492661  0.4955213  0.2392740

 Al 
  0.7630501  0.7463294  0.0001386

 Al 
  0.5191191  0.0121949  0.5096418

 Al 
  0.5065702  0.2388607  0.7562435

 Al 
  0.7478801  0.9921761  0.7447948

 Al 
  0.7444235  0.2655747  0.4954928

 Al 
  0.4971474  0.4968244  0.4942045

 Al 
  0.4881924  0.7414163  0.7460720

 Al 
  0.7430647  0.5061296  0.7267672

 Al 
  0.7325405  0.7443914  0.4994431

