32 
charge = 0 
 Al 
  0.9794899  0.0407554  0.9954656

 Al 
  0.9893446  0.2520704  0.2542733

 Al 
  0.2392505  0.0015519  0.2668308

 Al 
  0.2636082  0.2510136  0.9905401

 Al 
  0.5068190  0.9822645  0.0191810

 Al 
  0.4860960  0.2412418  0.2506250

 Al 
  0.7526830  0.0044255  0.2526669

 Al 
  0.7386701  0.2531570  0.9969593

 Al 
  0.9954210  0.4913197  0.9811210

 Al 
  0.9948381  0.7512549  0.2526682

 Al 
  0.2507401  0.4973739  0.2333560

 Al 
  0.2558524  0.7326976  0.0121776

 Al 
  0.9856183  0.9953864  0.5017450

 Al 
  0.0045320  0.2634882  0.7196203

 Al 
  0.2571308  0.9957032  0.7732340

 Al 
  0.2725014  0.2566544  0.5045740

 Al 
  0.0001522  0.5024256  0.4849896

 Al 
  0.0122655  0.7447738  0.7573672

 Al 
  0.2699012  0.4991387  0.7571766

 Al 
  0.2441599  0.7577744  0.5143953

 Al 
  0.5113967  0.4973417  0.0089562

 Al 
  0.4933295  0.7543377  0.2580701

 Al 
  0.7493936  0.4942268  0.2393359

 Al 
  0.7628917  0.7468603  0.0003886

 Al 
  0.5186167  0.0131182  0.5088585

 Al 
  0.5076481  0.2404398  0.7549577

 Al 
  0.7483194  0.9899968  0.7457069

 Al 
  0.7447057  0.2651366  0.4968554

 Al 
  0.4980224  0.4963876  0.4950807

 Al 
  0.4916328  0.7414682  0.7471598

 Al 
  0.7421155  0.5032177  0.7261287

 Al 
  0.7328536  0.7429954  0.4995347

