32 
charge = 0 
 Al 
  0.9791533  0.0407480  0.9960794

 Al 
  0.9895463  0.2519318  0.2541792

 Al 
  0.2387407  0.0016880  0.2662554

 Al 
  0.2638384  0.2502673  0.9904349

 Al 
  0.5066383  0.9822645  0.0189867

 Al 
  0.4857445  0.2420375  0.2507586

 Al 
  0.7519454  0.0043377  0.2525655

 Al 
  0.7387035  0.2539800  0.9978157

 Al 
  0.9952923  0.4910697  0.9814254

 Al 
  0.9940783  0.7514851  0.2526348

 Al 
  0.2501139  0.4974407  0.2332310

 Al 
  0.2559131  0.7328041  0.0125303

 Al 
  0.9863175  0.9958727  0.5018489

 Al 
  0.0044255  0.2636540  0.7192899

 Al 
  0.2574080  0.9955906  0.7733553

 Al 
  0.2726833  0.2563833  0.5049800

 Al 
  0.0002995  0.5028464  0.4846617

 Al 
  0.0117172  0.7441364  0.7569588

 Al 
  0.2700498  0.4990285  0.7570232

 Al 
  0.2448839  0.7574934  0.5140810

 Al 
  0.5110081  0.4982340  0.0079860

 Al 
  0.4936315  0.7546767  0.2582075

 Al 
  0.7494320  0.4938147  0.2393780

 Al 
  0.7628112  0.7470422  0.0004628

 Al 
  0.5183964  0.0133892  0.5085751

 Al 
  0.5080046  0.2409905  0.7545233

 Al 
  0.7484766  0.9892778  0.7460386

 Al 
  0.7448035  0.2649597  0.4972996

 Al 
  0.4983021  0.4962514  0.4953542

 Al 
  0.4928234  0.7415128  0.7475472

 Al 
  0.7418197  0.5022388  0.7259826

 Al 
  0.7329959  0.7425511  0.4995495

