32 
charge = 0 
 Al 
  0.9775197  0.0389164  0.0013539

 Al 
  0.9921910  0.2510829  0.2533724

 Al 
  0.2343943  0.0028984  0.2603200

 Al 
  0.2653495  0.2434793  0.9902554

 Al 
  0.5046124  0.9830107  0.0162331

 Al 
  0.4834513  0.2499183  0.2515841

 Al 
  0.7446983  0.0033649  0.2517499

 Al 
  0.7388322  0.2616244  0.0055814

 Al 
  0.9943097  0.4884016  0.9849599

 Al 
  0.9871987  0.7536211  0.2519578

 Al 
  0.2441364  0.4974717  0.2333610

 Al 
  0.2560455  0.7350502  0.0151416

 Al 
  0.9931253  0.0004245  0.5031682

 Al 
  0.0034144  0.2646899  0.7172504

 Al 
  0.2596171  0.9944359  0.7735298

 Al 
  0.2727910  0.2534639  0.5088473

 Al 
  0.0019851  0.5071816  0.4820318

 Al 
  0.0060851  0.7386157  0.7528427

 Al 
  0.2705646  0.4975818  0.7550010

 Al 
  0.2521199  0.7546198  0.5104277

 Al 
  0.5072459  0.5068907  0.9985904

 Al 
  0.4966314  0.7570813  0.2599401

 Al 
  0.7494790  0.4906094  0.2403210

 Al 
  0.7613707  0.7486907  0.0009641

 Al 
  0.5151119  0.0148656  0.5055307

 Al 
  0.5112940  0.2464754  0.7505705

 Al 
  0.7502067  0.9829538  0.7496399

 Al 
  0.7459012  0.2623447  0.5007760

 Al 
  0.5004393  0.4953257  0.4972687

 Al 
  0.5046545  0.7426291  0.7515853

 Al 
  0.7398495  0.4931860  0.7265272

 Al 
  0.7353745  0.7390934  0.4993193

