32 
charge = 0 
 Al 
  0.9778068  0.0400030  0.9994802

 Al 
  0.9910326  0.2512945  0.2536409

 Al 
  0.2359289  0.0024566  0.2626875

 Al 
  0.2649188  0.2459730  0.9901403

 Al 
  0.5054465  0.9825467  0.0174744

 Al 
  0.4840948  0.2468479  0.2513749

 Al 
  0.7475088  0.0037486  0.2520073

 Al 
  0.7388409  0.2587743  0.0027189

 Al 
  0.9946191  0.4894807  0.9834773

 Al 
  0.9897443  0.7528093  0.2522883

 Al 
  0.2464123  0.4975967  0.2330281

 Al 
  0.2561086  0.7339129  0.0143223

 Al 
  0.9904968  0.9987216  0.5025902

 Al 
  0.0037956  0.2644127  0.7177627

 Al 
  0.2588746  0.9949235  0.7736956

 Al 
  0.2731189  0.2546520  0.5073845

 Al 
  0.0012858  0.5054713  0.4829266

 Al 
  0.0083040  0.7406032  0.7544775

 Al 
  0.2705757  0.4982031  0.7558871

 Al 
  0.2492835  0.7557497  0.5119549

 Al 
  0.5086877  0.5035691  0.0021707

 Al 
  0.4954631  0.7563561  0.2591951

 Al 
  0.7495495  0.4916551  0.2398334

 Al 
  0.7620662  0.7480942  0.0008106

 Al 
  0.5166180  0.0145574  0.5067583

 Al 
  0.5100589  0.2443567  0.7520185

 Al 
  0.7494951  0.9852297  0.7481882

 Al 
  0.7454359  0.2635686  0.4996498

 Al 
  0.4997475  0.4955918  0.4967093

 Al 
  0.5000644  0.7420487  0.7499839

 Al 
  0.7403866  0.4965596  0.7258762

 Al 
  0.7342297  0.7402307  0.4994852

