32 
charge = 0 
 Al 
  0.9775494  0.0392283  0.0009183

 Al 
  0.9918927  0.2511188  0.2534293

 Al 
  0.2347495  0.0027944  0.2609066

 Al 
  0.2652629  0.2440684  0.9902047

 Al 
  0.5048215  0.9828746  0.0165561

 Al 
  0.4835788  0.2491659  0.2515470

 Al 
  0.7453839  0.0034565  0.2518031

 Al 
  0.7388434  0.2609462  0.0049020

 Al 
  0.9943740  0.4886701  0.9845849

 Al 
  0.9878051  0.7534243  0.2520457

 Al 
  0.2446859  0.4975187  0.2332471

 Al 
  0.2560777  0.7347396  0.0149658

 Al 
  0.9924843  0.0000186  0.5030184

 Al 
  0.0035048  0.2646367  0.7173383

 Al 
  0.2594500  0.9945646  0.7736003

 Al 
  0.2729172  0.2537610  0.5084971

 Al 
  0.0018093  0.5067620  0.4822348

 Al 
  0.0066284  0.7390835  0.7532474

 Al 
  0.2705943  0.4977390  0.7552287

 Al 
  0.2514232  0.7548958  0.5108126

 Al 
  0.5075949  0.5060863  0.9994518

 Al 
  0.4963455  0.7569316  0.2597508

 Al 
  0.7495099  0.4908371  0.2401861

 Al 
  0.7615576  0.7485533  0.0009306

 Al 
  0.5155067  0.0148235  0.5058351

 Al 
  0.5109970  0.2459631  0.7509108

 Al 
  0.7500272  0.9834847  0.7492810

 Al 
  0.7457811  0.2626714  0.5005334

 Al 
  0.5002884  0.4953777  0.4971561

 Al 
  0.5035382  0.7424694  0.7511930

 Al 
  0.7399485  0.4939904  0.7263131

 Al 
  0.7350663  0.7393446  0.4993676

