32 
charge = 0 
 Al 
  0.9775370  0.0382221  0.0021558

 Al 
  0.9927986  0.2510457  0.2532795

 Al 
  0.2337446  0.0030927  0.2591604

 Al 
  0.2654831  0.2423766  0.9903965

 Al 
  0.5041966  0.9833263  0.0155661

 Al 
  0.4832607  0.2513873  0.2516299

 Al 
  0.7433617  0.0031929  0.2516658

 Al 
  0.7387889  0.2629078  0.0068635

 Al 
  0.9942045  0.4878719  0.9857136

 Al 
  0.9860428  0.7540072  0.2517734

 Al 
  0.2430796  0.4973491  0.2336431

 Al 
  0.2559477  0.7357198  0.0154349

 Al 
  0.9943740  0.0011942  0.5034726

 Al 
  0.0032424  0.2647678  0.7171539

 Al 
  0.2599116  0.9941661  0.7733281

 Al 
  0.2724531  0.2528724  0.5095144

 Al 
  0.0023353  0.5079971  0.4816667

 Al 
  0.0050233  0.7377370  0.7520383

 Al 
  0.2704520  0.4972699  0.7545332

 Al 
  0.2534875  0.7540802  0.5096567

 Al 
  0.5065727  0.5084414  0.9969445

 Al 
  0.4971883  0.7573239  0.2603200

 Al 
  0.7493911  0.4902183  0.2406205

 Al 
  0.7609747  0.7489431  0.0010259

 Al 
  0.5142914  0.0148817  0.5049317

 Al 
  0.5118633  0.2474605  0.7499369

 Al 
  0.7505680  0.9819712  0.7503403

 Al 
  0.7461512  0.2616455  0.5011819

 Al 
  0.5006992  0.4952478  0.4974382

 Al 
  0.5068227  0.7429744  0.7523477

 Al 
  0.7397220  0.4916601  0.7270568

 Al 
  0.7360316  0.7386516  0.4992092

