32 
charge = 0 
 Al 
  0.9777363  0.0370031  0.0032028

 Al 
  0.9937355  0.2510742  0.2532003

 Al 
  0.2329117  0.0033538  0.2574464

 Al 
  0.2655896  0.2409064  0.9907022

 Al 
  0.5035803  0.9839018  0.0145178

 Al 
  0.4831271  0.2535184  0.2516286

 Al 
  0.7414373  0.0029714  0.2515965

 Al 
  0.7386714  0.2646428  0.0086048

 Al 
  0.9941166  0.4870922  0.9868571

 Al 
  0.9844488  0.7545716  0.2514752

 Al 
  0.2415883  0.4970992  0.2341926

 Al 
  0.2557151  0.7368422  0.0157368

 Al 
  0.9961747  0.0022449  0.5039491

 Al 
  0.0030098  0.2648173  0.7172108

 Al 
  0.2602619  0.9937132  0.7728763

 Al 
  0.2717403  0.2519875  0.5104314

 Al 
  0.0028588  0.5091642  0.4812138

 Al 
  0.0034986  0.7365415  0.7508403

 Al 
  0.2701488  0.4968120  0.7538105

 Al 
  0.2554836  0.7533031  0.5084996

 Al 
  0.5056198  0.5106269  0.9946661

 Al 
  0.4979902  0.7575405  0.2608844

 Al 
  0.7491869  0.4898012  0.2411403

 Al 
  0.7603262  0.7492562  0.0011089

 Al 
  0.5129882  0.0147406  0.5040567

 Al 
  0.5126566  0.2488330  0.7491040

 Al 
  0.7511188  0.9806940  0.7513514

 Al 
  0.7465522  0.2604809  0.5015903

 Al 
  0.5009888  0.4951983  0.4975620

 Al 
  0.5099092  0.7435560  0.7534293

 Al 
  0.7397097  0.4895711  0.7280951

 Al 
  0.7371182  0.7381392  0.4990199

