32 
charge = 0 
 Al 
  0.9776484  0.0374326  0.0028736

 Al 
  0.9934199  0.2510532  0.2532189

 Al 
  0.2331704  0.0032709  0.2580145

 Al 
  0.2655661  0.2413730  0.9905883

 Al 
  0.5037845  0.9836964  0.0148730

 Al 
  0.4831518  0.2528167  0.2516385

 Al 
  0.7420685  0.0030395  0.2516113

 Al 
  0.7387184  0.2640896  0.0080479

 Al 
  0.9941364  0.4873496  0.9864747

 Al 
  0.9849636  0.7543847  0.2515779

 Al 
  0.2420734  0.4971907  0.2339934

 Al 
  0.2558042  0.7364524  0.0156539

 Al 
  0.9955831  0.0019083  0.5037882

 Al 
  0.0030840  0.2648087  0.7171650

 Al 
  0.2601567  0.9938716  0.7730471

 Al 
  0.2720051  0.2522821  0.5101369

 Al 
  0.0026843  0.5087830  0.4813524

 Al 
  0.0039986  0.7369252  0.7512388

 Al 
  0.2702676  0.4969630  0.7540543

 Al 
  0.2548253  0.7535580  0.5088857

 Al 
  0.5059304  0.5099166  0.9954000

 Al 
  0.4977266  0.7574873  0.2606975

 Al 
  0.7492649  0.4899188  0.2409571

 Al 
  0.7605490  0.7491597  0.0010816

 Al 
  0.5134325  0.0148087  0.5043451

 Al 
  0.5124004  0.2483899  0.7493651

 Al 
  0.7509344  0.9810938  0.7510198

 Al 
  0.7464148  0.2608856  0.5014814

 Al 
  0.5009047  0.4952057  0.4975373

 Al 
  0.5089005  0.7433531  0.7530778

 Al 
  0.7396899  0.4902418  0.7277177

 Al 
  0.7367420  0.7382902  0.4990867

