32 
charge = 0 
 Al 
  0.9775816  0.0378385  0.0025259

 Al 
  0.9931080  0.2510433  0.2532449

 Al 
  0.2334476  0.0031842  0.2585862

 Al 
  0.2655302  0.2418630  0.9904869

 Al 
  0.5039899  0.9835045  0.0152220

 Al 
  0.4831964  0.2521063  0.2516385

 Al 
  0.7427095  0.0031137  0.2516348

 Al 
  0.7387580  0.2635105  0.0074675

 Al 
  0.9941661  0.4876095  0.9860935

 Al 
  0.9854945  0.7541978  0.2516769

 Al 
  0.2425697  0.4972736  0.2338102

 Al 
  0.2558821  0.7360787  0.0155524

 Al 
  0.9949829  0.0015581  0.5036285

 Al 
  0.0031620  0.2647926  0.7171452

 Al 
  0.2600403  0.9940213  0.7731969

 Al 
  0.2722427  0.2525766  0.5098312

 Al 
  0.0025098  0.5083944  0.4815034

 Al 
  0.0045060  0.7373224  0.7516385

 Al 
  0.2703690  0.4971165  0.7542956

 Al 
  0.2541594  0.7538166  0.5092718

 Al 
  0.5062485  0.5091877  0.9961598

 Al 
  0.4974593  0.7574142  0.2605094

 Al 
  0.7493330  0.4900574  0.2407839

 Al 
  0.7607656  0.7490557  0.0010544

 Al 
  0.5138669  0.0148557  0.5046371

 Al 
  0.5121355  0.2479320  0.7496436

 Al 
  0.7507500  0.9815195  0.7506831

 Al 
  0.7462811  0.2612730  0.5013452

 Al 
  0.5008081  0.4952218  0.4974964

 Al 
  0.5078721  0.7431600  0.7527177

 Al 
  0.7396936  0.4909386  0.7273712

 Al 
  0.7363794  0.7384610  0.4991498

