32 
charge = 0 
 Al 
  0.9789070  0.0333065  0.0050158

 Al 
  0.9960522  0.2515395  0.2533179

 Al 
  0.2315925  0.0038216  0.2534503

 Al 
  0.2654250  0.2382852  0.9918061

 Al 
  0.5021732  0.9857829  0.0118385

 Al 
  0.4834612  0.2583078  0.2513242

 Al 
  0.7371974  0.0026657  0.2516955

 Al 
  0.7381182  0.2678432  0.0119375

 Al 
  0.9942540  0.4853287  0.9896329

 Al 
  0.9812447  0.7558908  0.2506745

 Al 
  0.2384659  0.4962576  0.2360044

 Al 
  0.2547003  0.7400265  0.0158606

 Al 
  0.0002017  0.0042622  0.5051606

 Al 
  0.0025816  0.2646664  0.7183258

 Al 
  0.2606839  0.9923642  0.7710943

 Al 
  0.2691253  0.2499010  0.5122036

 Al 
  0.0040939  0.5116343  0.4805752

 Al 
  0.0001757  0.7341604  0.7479939

 Al 
  0.2687862  0.4958022  0.7519875

 Al 
  0.2600218  0.7515952  0.5057448

 Al 
  0.5035778  0.5151502  0.9901663

 Al 
  0.4997686  0.7574130  0.2621232

 Al 
  0.7483590  0.4896144  0.2427714

 Al 
  0.7585342  0.7496720  0.0013291

 Al 
  0.5095738  0.0136763  0.5020841

 Al 
  0.5142505  0.2515556  0.7476882

 Al 
  0.7525147  0.9786347  0.7535122

 Al 
  0.7476635  0.2571383  0.5016125

 Al 
  0.5012636  0.4953950  0.4972984

 Al 
  0.5165029  0.7452181  0.7556161

 Al 
  0.7405500  0.4855143  0.7316544

 Al 
  0.7401787  0.7375761  0.4985025

