32 
charge = 0 
 Al 
  0.9806359  0.0290147  0.0060146

 Al 
  0.9982278  0.2524021  0.2537956

 Al 
  0.2311334  0.0040604  0.2498317

 Al 
  0.2648037  0.2369016  0.9931575

 Al 
  0.5010000  0.9881293  0.0091926

 Al 
  0.4844537  0.2624932  0.2507463

 Al 
  0.7336184  0.0027016  0.2520618

 Al 
  0.7372754  0.2696500  0.0141453

 Al 
  0.9948196  0.4838572  0.9922628

 Al 
  0.9789119  0.7571432  0.2498255

 Al 
  0.2360539  0.4953183  0.2381367

 Al 
  0.2531657  0.7434818  0.0153718

 Al 
  0.0037300  0.0055641  0.5063524

 Al 
  0.0023254  0.2642542  0.7205460

 Al 
  0.2606133  0.9907653  0.7686030

 Al 
  0.2657282  0.2480088  0.5133236

 Al 
  0.0052151  0.5135006  0.4804948

 Al 
  0.9974506  0.7323288  0.7453406

 Al 
  0.2667640  0.4950101  0.7501931

 Al 
  0.2640241  0.7501473  0.5031941

 Al 
  0.5018675  0.5185065  0.9871170

 Al 
  0.5012957  0.7565950  0.2629969

 Al 
  0.7472118  0.4903916  0.2447985

 Al 
  0.7566135  0.7496461  0.0016509

 Al 
  0.5060826  0.0119128  0.5003935

 Al 
  0.5153433  0.2533823  0.7470187

 Al 
  0.7539652  0.9779602  0.7551643

 Al 
  0.7488973  0.2533897  0.5005990

 Al 
  0.5011534  0.4959074  0.4965447

 Al 
  0.5217440  0.7470447  0.7570281

 Al 
  0.7423494  0.4827781  0.7360725

 Al 
  0.7435226  0.7377518  0.4980273

