32 
charge = 0 
 Al 
  0.9786830  0.0339142  0.0048030

 Al 
  0.9957094  0.2514380  0.2532734

 Al 
  0.2317299  0.0037671  0.2540307

 Al 
  0.2654844  0.2385934  0.9916155

 Al 
  0.5023724  0.9854624  0.0122444

 Al 
  0.4833597  0.2576271  0.2513923

 Al 
  0.7377927  0.0026892  0.2516596

 Al 
  0.7382234  0.2674571  0.0115155

 Al 
  0.9942033  0.4855774  0.9892221

 Al 
  0.9816667  0.7556977  0.2507995

 Al 
  0.2388879  0.4963975  0.2357012

 Al 
  0.2548908  0.7395203  0.0158891

 Al 
  0.9996287  0.0040072  0.5049775

 Al 
  0.0026335  0.2647097  0.7180758

 Al 
  0.2606567  0.9925870  0.7714173

 Al 
  0.2695832  0.2502042  0.5119808

 Al 
  0.0039144  0.5113002  0.4806309

 Al 
  0.0006373  0.7344773  0.7484122

 Al 
  0.2690411  0.4959408  0.7522623

 Al 
  0.2593721  0.7518353  0.5061482

 Al 
  0.5038612  0.5145463  0.9907443

 Al 
  0.4995186  0.7574848  0.2619573

 Al 
  0.7485087  0.4895723  0.2424967

 Al 
  0.7588176  0.7496411  0.0012920

 Al 
  0.5100997  0.0138916  0.5023625

 Al 
  0.5140426  0.2512066  0.7478479

 Al 
  0.7523006  0.9788488  0.7532189

 Al 
  0.7474853  0.2576778  0.5016880

 Al 
  0.5012537  0.4953406  0.4973801

 Al 
  0.5155995  0.7449520  0.7553351

 Al 
  0.7403520  0.4860329  0.7310443

 Al 
  0.7396911  0.7376046  0.4985805

