32 
charge = 0 
 Al 
  0.9791495  0.0326704  0.0052139

 Al 
  0.9964024  0.2516521  0.2533724

 Al 
  0.2314725  0.0038723  0.2528662

 Al 
  0.2653544  0.2379981  0.9920053

 Al 
  0.5019751  0.9861207  0.0114239

 Al 
  0.4835813  0.2589921  0.2512475

 Al 
  0.7366034  0.0026509  0.2517388

 Al 
  0.7380031  0.2682058  0.0123422

 Al 
  0.9943171  0.4850812  0.9900500

 Al 
  0.9808326  0.7560888  0.2505445

 Al 
  0.2380489  0.4961128  0.2363225

 Al 
  0.2544924  0.7405524  0.0158160

 Al 
  0.0007760  0.0045047  0.5053487

 Al 
  0.0025321  0.2646169  0.7186068

 Al 
  0.2607000  0.9921291  0.7707465

 Al 
  0.2686377  0.2495941  0.5124165

 Al 
  0.0042758  0.5119610  0.4805294

 Al 
  0.9997178  0.7338486  0.7475694

 Al 
  0.2685090  0.4956648  0.7517066

 Al 
  0.2606752  0.7513564  0.5053364

 Al 
  0.5032969  0.5157406  0.9896082

 Al 
  0.5000198  0.7573239  0.2622853

 Al 
  0.7481969  0.4896800  0.2430635

 Al 
  0.7582422  0.7496931  0.0013712

 Al 
  0.5090330  0.0134387  0.5018044

 Al 
  0.5144498  0.2518935  0.7475434

 Al 
  0.7527350  0.9784466  0.7537993

 Al 
  0.7478479  0.2565764  0.5015098

 Al 
  0.5012648  0.4954581  0.4972031

 Al 
  0.5173952  0.7454940  0.7558858

 Al 
  0.7407752  0.4850144  0.7322991

 Al 
  0.7406849  0.7375625  0.4984233

