32 
charge = 0 
 Al 
  0.9794094  0.0320046  0.0053982

 Al 
  0.9967563  0.2517784  0.2534367

 Al 
  0.2313685  0.0039194  0.2522746

 Al 
  0.2652715  0.2377345  0.9922157

 Al 
  0.5017784  0.9864796  0.0109982

 Al 
  0.4837186  0.2596815  0.2511633

 Al 
  0.7360094  0.0026434  0.2517895

 Al 
  0.7378781  0.2685449  0.0127320

 Al 
  0.9943926  0.4848349  0.9904757

 Al 
  0.9804304  0.7562893  0.2504109

 Al 
  0.2376392  0.4959631  0.2366554

 Al 
  0.2542671  0.7410982  0.0157566

 Al 
  0.0013551  0.0047386  0.5055406

 Al 
  0.0024863  0.2645587  0.7189223

 Al 
  0.2607049  0.9918828  0.7703740

 Al 
  0.2681192  0.2492847  0.5126182

 Al 
  0.0044589  0.5122816  0.4804973

 Al 
  0.9992624  0.7335404  0.7471388

 Al 
  0.2682095  0.4955299  0.7514182

 Al 
  0.2613324  0.7511175  0.5049218

 Al 
  0.5030147  0.5163185  0.9890698

 Al 
  0.5002723  0.7572150  0.2624412

 Al 
  0.7480236  0.4897703  0.2433716

 Al 
  0.7579390  0.7497042  0.0014158

 Al 
  0.5084773  0.0131800  0.5015247

 Al 
  0.5146441  0.2522177  0.7474110

 Al 
  0.7529640  0.9782882  0.7540827

 Al 
  0.7480409  0.2559898  0.5013811

 Al 
  0.5012561  0.4955299  0.4970954

 Al 
  0.5182800  0.7457811  0.7561420

 Al 
  0.7410301  0.4845329  0.7329798

 Al 
  0.7412108  0.7375662  0.4983441

