32 
charge = 0 
 Al 
  0.9830046  0.0235199  0.0065913

 Al 
  0.0005544  0.2536657  0.2546483

 Al 
  0.2313635  0.0041211  0.2459643

 Al 
  0.2636503  0.2363980  0.9948159

 Al 
  0.4999072  0.9912863  0.0061631

 Al 
  0.4861034  0.2668878  0.2499084

 Al 
  0.7299998  0.0030791  0.2526632

 Al 
  0.7360650  0.2704619  0.0158272

 Al 
  0.9958764  0.4824761  0.9952131

 Al 
  0.9769516  0.7585924  0.2487860

 Al 
  0.2338968  0.4943184  0.2407777

 Al 
  0.2508552  0.7476363  0.0143545

 Al 
  0.0075083  0.0064366  0.5076816

 Al 
  0.0021608  0.2635365  0.7241795

 Al 
  0.2601195  0.9886961  0.7650549

 Al 
  0.2612049  0.2460002  0.5139968

 Al 
  0.0063970  0.5150822  0.4809329

 Al 
  0.9947985  0.7305232  0.7424472

 Al 
  0.2638199  0.4943258  0.7481288

 Al 
  0.2682120  0.7486337  0.5003775

 Al 
  0.5000136  0.5213331  0.9848720

 Al 
  0.5028984  0.7550876  0.2634931

 Al 
  0.7456562  0.4921440  0.2475632

 Al 
  0.7543030  0.7492278  0.0022214

 Al 
  0.5019652  0.0093399  0.4986770

 Al 
  0.5161205  0.2546631  0.7468195

 Al 
  0.7557819  0.9785357  0.7565900

 Al 
  0.7504331  0.2487377  0.4986634

 Al 
  0.5008527  0.4967143  0.4954520

 Al 
  0.5266571  0.7492909  0.7577855

 Al 
  0.7452762  0.4806878  0.7417603

 Al 
  0.7475967  0.7385637  0.4975929

