32 
charge = 0 
 Al 
  0.9839080  0.0214569  0.0066927

 Al 
  0.0013279  0.2541421  0.2550072

 Al 
  0.2316061  0.0040963  0.2446673

 Al 
  0.2631380  0.2364536  0.9954025

 Al 
  0.4995854  0.9925016  0.0050913

 Al 
  0.4867791  0.2683592  0.2495879

 Al 
  0.7288204  0.0032845  0.2529021

 Al 
  0.7355960  0.2704755  0.0162616

 Al 
  0.9963381  0.4820690  0.9962465

 Al 
  0.9764158  0.7591134  0.2484023

 Al 
  0.2332743  0.4940164  0.2417356

 Al 
  0.2499097  0.7491263  0.0139065

 Al 
  0.0088028  0.0066061  0.5081320

 Al 
  0.0021274  0.2632196  0.7257091

 Al 
  0.2598597  0.9879214  0.7636503

 Al 
  0.2594958  0.2453282  0.5140934

 Al 
  0.0067880  0.5155128  0.4812089

 Al 
  0.9939656  0.7299317  0.7414695

 Al 
  0.2626491  0.4941377  0.7473974

 Al 
  0.2695956  0.7481201  0.4994010

 Al 
  0.4993466  0.5221103  0.9843436

 Al 
  0.5034417  0.7544416  0.2635241

 Al 
  0.7450696  0.4929397  0.2486362

 Al 
  0.7534701  0.7490050  0.0024838

 Al 
  0.5004864  0.0083350  0.4981177

 Al 
  0.5162876  0.2549379  0.7468492

 Al 
  0.7564687  0.9790493  0.7569922

 Al 
  0.7509938  0.2470373  0.4978516

 Al 
  0.5007388  0.4970286  0.4950597

 Al 
  0.5281583  0.7501126  0.7578375

 Al 
  0.7464841  0.4801582  0.7438654

 Al 
  0.7490706  0.7389770  0.4974729

