32 
charge = 0 
 Al 
  0.9894844  0.0088213  0.0064267

 Al 
  0.0049082  0.2564984  0.2573944

 Al 
  0.2345763  0.0035357  0.2384053

 Al 
  0.2590689  0.2390228  0.9983206

 Al 
  0.4984568  0.0002079  0.9989481

 Al 
  0.4911477  0.2756757  0.2477625

 Al 
  0.7233095  0.0050233  0.2543141

 Al 
  0.7329068  0.2679991  0.0174509

 Al 
  0.9997129  0.4808623  0.0020024

 Al 
  0.9751794  0.7621875  0.2461277

 Al 
  0.2314440  0.4933506  0.2471462

 Al 
  0.2433196  0.7573103  0.0105477

 Al 
  0.0156972  0.0059638  0.5102371

 Al 
  0.0021336  0.2604685  0.7368076

 Al 
  0.2576308  0.9832842  0.7544156

 Al 
  0.2493391  0.2420734  0.5131231

 Al 
  0.0086815  0.5165054  0.4839946

 Al 
  0.9905636  0.7271509  0.7369041

 Al 
  0.2549886  0.4937379  0.7433543

 Al 
  0.2759034  0.7453158  0.4941241

 Al 
  0.4950448  0.5243070  0.9837805

 Al 
  0.5062967  0.7499394  0.2618175

 Al 
  0.7417368  0.4988528  0.2554626

 Al 
  0.7488429  0.7471858  0.0045728

 Al 
  0.4920511  0.0021769  0.4953926

 Al 
  0.5160896  0.2547956  0.7476759

 Al 
  0.7608881  0.9851455  0.7582805

 Al 
  0.7541359  0.2372977  0.4926773

 Al 
  0.5004158  0.4987191  0.4934471

 Al 
  0.5341567  0.7549032  0.7558029

 Al 
  0.7545493  0.4790444  0.7561160

 Al 
  0.7573400  0.7426365  0.4971672

