32 
charge = 0 
 Al 
  0.9899064  0.0078622  0.0063425

 Al 
  0.0050814  0.2566036  0.2575801

 Al 
  0.2349154  0.0034689  0.2380674

 Al 
  0.2586840  0.2393768  0.9984778

 Al 
  0.4984295  0.0008081  0.9984988

 Al 
  0.4914757  0.2761051  0.2476424

 Al 
  0.7230199  0.0051792  0.2544032

 Al 
  0.7327385  0.2676377  0.0174546

 Al 
  0.0000025  0.4808797  0.0024058

 Al 
  0.9752488  0.7624140  0.2459655

 Al 
  0.2314663  0.4934112  0.2475199

 Al 
  0.2427615  0.7578461  0.0102384

 Al 
  0.0161428  0.0057745  0.5103349

 Al 
  0.0021484  0.2601752  0.7377865

 Al 
  0.2574179  0.9829427  0.7536768

 Al 
  0.2486152  0.2418977  0.5129301

 Al 
  0.0087855  0.5164522  0.4842867

 Al 
  0.9904423  0.7270172  0.7366900

 Al 
  0.2543822  0.4937689  0.7430833

 Al 
  0.2761942  0.7451203  0.4937738

 Al 
  0.4946748  0.5242958  0.9839104

 Al 
  0.5064786  0.7495706  0.2615279

 Al 
  0.7415252  0.4993565  0.2559886

 Al 
  0.7485323  0.7470274  0.0047609

 Al 
  0.4914571  0.0017313  0.4952304

 Al 
  0.5159856  0.2546607  0.7477674

 Al 
  0.7612470  0.9858274  0.7582991

 Al 
  0.7543476  0.2366207  0.4923036

 Al 
  0.5004344  0.4988107  0.4934125

 Al 
  0.5343832  0.7552448  0.7554750

 Al 
  0.7551841  0.4791050  0.7569898

 Al 
  0.7578969  0.7430090  0.4971759

