32 
charge = 0 
 Al 
  0.9929471  0.0008787  0.0053500

 Al 
  0.0056953  0.2567682  0.2588659

 Al 
  0.2380588  0.0029046  0.2364413

 Al 
  0.2554317  0.2427850  0.9992080

 Al 
  0.4984741  0.0052324  0.9952403

 Al 
  0.4937082  0.2784961  0.2469011

 Al 
  0.7216462  0.0063215  0.2548042

 Al 
  0.7318945  0.2641255  0.0171452

 Al 
  0.0022375  0.4817163  0.0052374

 Al 
  0.9767326  0.7640241  0.2449111

 Al 
  0.2326147  0.4945683  0.2500272

 Al 
  0.2384610  0.7611641  0.0075813

 Al 
  0.0188815  0.0034652  0.5106133

 Al 
  0.0023266  0.2573796  0.7457477

 Al 
  0.2556346  0.9805245  0.7481622

 Al 
  0.2437454  0.2410858  0.5108633

 Al 
  0.0092731  0.5152579  0.4868435

 Al 
  0.9904101  0.7266299  0.7360601

 Al 
  0.2498837  0.4943580  0.7413433

 Al 
  0.2770902  0.7437454  0.4914534

 Al 
  0.4916007  0.5233268  0.9856294

 Al 
  0.5075677  0.7468504  0.2584229

 Al 
  0.7403940  0.5031632  0.2597706

 Al 
  0.7464754  0.7458665  0.0062188

 Al 
  0.4874140  0.9987389  0.4942057

 Al 
  0.5147171  0.2531149  0.7484840

 Al 
  0.7640030  0.9919521  0.7580479

 Al 
  0.7557312  0.2321222  0.4899411

 Al 
  0.5008824  0.4991832  0.4938382

 Al 
  0.5348460  0.7575751  0.7521855

 Al 
  0.7597421  0.4802980  0.7630414

 Al 
  0.7614833  0.7463764  0.4974160

