32 
charge = 0 
 Al 
  0.9922368  0.0025246  0.0056532

 Al 
  0.0056668  0.2568412  0.2585800

 Al 
  0.2371949  0.0030469  0.2366764

 Al 
  0.2562769  0.2418383  0.9991090

 Al 
  0.4984258  0.0041842  0.9960113

 Al 
  0.4932144  0.2780617  0.2470509

 Al 
  0.7218405  0.0060591  0.2547621

 Al 
  0.7320170  0.2651020  0.0172714

 Al 
  0.0016905  0.4813883  0.0045815

 Al 
  0.9762041  0.7636540  0.2451314

 Al 
  0.2321667  0.4941674  0.2494716

 Al 
  0.2395117  0.7604896  0.0082867

 Al 
  0.0183283  0.0041817  0.5106307

 Al 
  0.0022709  0.2581630  0.7437206

 Al 
  0.2560962  0.9810839  0.7494802

 Al 
  0.2448183  0.2411898  0.5114660

 Al 
  0.0092075  0.5156861  0.4861641

 Al 
  0.9902641  0.7266064  0.7360366

 Al 
  0.2509554  0.4941550  0.7417096

 Al 
  0.2771026  0.7440634  0.4919633

 Al 
  0.4924014  0.5237067  0.9850985

 Al 
  0.5073573  0.7474915  0.2593325

 Al 
  0.7405760  0.5022499  0.2588919

 Al 
  0.7469259  0.7461376  0.0058660

 Al 
  0.4883149  0.9993948  0.4944260

 Al 
  0.5151057  0.2535716  0.7483132

 Al 
  0.7633273  0.9903062  0.7581741

 Al 
  0.7554329  0.2331048  0.4904237

 Al 
  0.5007203  0.4991510  0.4936105

 Al 
  0.5349401  0.7570541  0.7531137

 Al 
  0.7586889  0.4798884  0.7616665

 Al 
  0.7607222  0.7454594  0.4973281

