32 
charge = 0 
 Al 
  0.9907208  0.0060071  0.0061482

 Al 
  0.0053611  0.2567571  0.2579353

 Al 
  0.2356269  0.0033315  0.2374845

 Al 
  0.2578994  0.2401342  0.9987476

 Al 
  0.4983998  0.0019764  0.9976338

 Al 
  0.4920994  0.2768712  0.2474197

 Al 
  0.7225224  0.0054849  0.2545579

 Al 
  0.7324415  0.2668593  0.0174298

 Al 
  0.0005742  0.4809712  0.0031743

 Al 
  0.9754628  0.7628508  0.2456599

 Al 
  0.2315913  0.4935882  0.2482229

 Al 
  0.2416601  0.7588337  0.0096084

 Al 
  0.0169620  0.0053314  0.5104908

 Al 
  0.0021831  0.2595552  0.7397505

 Al 
  0.2569860  0.9822880  0.7522326

 Al 
  0.2472464  0.2415945  0.5124994

 Al 
  0.0089637  0.5162814  0.4848869

 Al 
  0.9902802  0.7268031  0.7363522

 Al 
  0.2532003  0.4938605  0.7425771

 Al 
  0.2766571  0.7447478  0.4931167

 Al 
  0.4939322  0.5241956  0.9842335

 Al 
  0.5068115  0.7488503  0.2608831

 Al 
  0.7411452  0.5003465  0.2570034

 Al 
  0.7479481  0.7467192  0.0051359

 Al 
  0.4903309  0.0008886  0.4949322

 Al 
  0.5157393  0.2543488  0.7479531

 Al 
  0.7619524  0.9872457  0.7583016

 Al 
  0.7547436  0.2353473  0.4916069

 Al 
  0.5004963  0.4989654  0.4934001

 Al 
  0.5347173  0.7558920  0.7547597

 Al 
  0.7564106  0.4792894  0.7586518

 Al 
  0.7589352  0.7437825  0.4972081

