32 
charge = 0 
 Al 
  0.9914955  0.0042300  0.0059180

 Al 
  0.0055554  0.2568375  0.2582682

 Al 
  0.2363856  0.0031904  0.2370229

 Al 
  0.2570987  0.2409547  0.9989567

 Al 
  0.4983998  0.0031001  0.9968071

 Al 
  0.4926798  0.2775222  0.2472229

 Al 
  0.7221313  0.0057794  0.2546792

 Al 
  0.7322001  0.2660141  0.0173680

 Al 
  0.0011361  0.4811408  0.0038971

 Al 
  0.9757821  0.7632630  0.2453827

 Al 
  0.2318252  0.4938407  0.2488726

 Al 
  0.2405772  0.7597149  0.0089600

 Al 
  0.0176897  0.0048017  0.5105898

 Al 
  0.0022239  0.2588857  0.7417257

 Al 
  0.2565455  0.9816705  0.7508354

 Al 
  0.2459829  0.2413593  0.5120118

 Al 
  0.0091047  0.5160264  0.4855131

 Al 
  0.9902208  0.7266658  0.7361343

 Al 
  0.2520593  0.4939892  0.7421192

 Al 
  0.2769591  0.7443963  0.4925152

 Al 
  0.4931761  0.5239976  0.9846307

 Al 
  0.5071048  0.7481573  0.2601517

 Al 
  0.7408272  0.5013118  0.2579711

 Al 
  0.7474147  0.7464210  0.0055047

 Al 
  0.4892852  0.0001101  0.4946661

 Al 
  0.5154460  0.2539837  0.7481362

 Al 
  0.7626454  0.9887394  0.7582595

 Al 
  0.7551049  0.2341778  0.4909794

 Al 
  0.5005916  0.4990793  0.4934657

 Al 
  0.5348993  0.7564935  0.7539726

 Al 
  0.7575788  0.4795505  0.7602074

 Al 
  0.7598757  0.7445968  0.4972588

