32 
charge = 0 
 Al 
  0.9932924  0.0000755  0.0051841

 Al 
  0.0056792  0.2567039  0.2590008

 Al 
  0.2385142  0.0028328  0.2363633

 Al 
  0.2549985  0.2432825  0.9992389

 Al 
  0.4985050  0.0057448  0.9948616

 Al 
  0.4939397  0.2786756  0.2468343

 Al 
  0.7215843  0.0064452  0.2548079

 Al 
  0.7318573  0.2636119  0.0170722

 Al 
  0.0025098  0.4819118  0.0055579

 Al 
  0.9770370  0.7642023  0.2448121

 Al 
  0.2328783  0.4947973  0.2502896

 Al 
  0.2379400  0.7614648  0.0072138

 Al 
  0.0191265  0.0030704  0.5105799

 Al 
  0.0023576  0.2569613  0.7467774

 Al 
  0.2553995  0.9802547  0.7475162

 Al 
  0.2432404  0.2410598  0.5105403

 Al 
  0.0092916  0.5150092  0.4871962

 Al 
  0.9905203  0.7266732  0.7361183

 Al 
  0.2493577  0.4944730  0.7411762

 Al 
  0.2770247  0.7435919  0.4912133

 Al 
  0.4911886  0.5231028  0.9859190

 Al 
  0.5076568  0.7465398  0.2579315

 Al 
  0.7403297  0.5036100  0.2601950

 Al 
  0.7462638  0.7457378  0.0063908

 Al 
  0.4869870  0.9984320  0.4941018

 Al 
  0.5145042  0.2528724  0.7485644

 Al 
  0.7643384  0.9928060  0.7579699

 Al 
  0.7558685  0.2316643  0.4897282

 Al 
  0.5009752  0.4991844  0.4939842

 Al 
  0.5347495  0.7578226  0.7516955

 Al 
  0.7602495  0.4805294  0.7637023

 Al 
  0.7618336  0.7468578  0.4974667

