32 
charge = 0 
 Al 
  0.9952577  0.9954619  0.0039577

 Al 
  0.0051631  0.2558945  0.2596505

 Al 
  0.2416093  0.0024194  0.2364338

 Al 
  0.2522289  0.2466413  0.9991832

 Al 
  0.4987525  0.0086852  0.9926489

 Al 
  0.4951153  0.2792226  0.2465472

 Al 
  0.7217031  0.0070479  0.2545629

 Al 
  0.7320182  0.2601691  0.0164918

 Al 
  0.0041310  0.4835714  0.0074489

 Al 
  0.9794825  0.7651626  0.2443926

 Al 
  0.2350342  0.4965695  0.2516769

 Al 
  0.2348832  0.7627543  0.0047522

 Al 
  0.0201673  0.0001200  0.5100292

 Al 
  0.0025915  0.2540406  0.7532746

 Al 
  0.2538909  0.9787436  0.7437751

 Al 
  0.2406106  0.2412727  0.5082781

 Al 
  0.0091840  0.5129895  0.4894956

 Al 
  0.9917294  0.7274281  0.7371430

 Al 
  0.2463170  0.4953604  0.7403854

 Al 
  0.2757834  0.7427033  0.4899139

 Al 
  0.4885018  0.5212960  0.9879548

 Al 
  0.5079538  0.7448146  0.2544565

 Al 
  0.7403730  0.5061742  0.2625600

 Al 
  0.7451426  0.7450448  0.0073672

 Al 
  0.4847483  0.9968813  0.4935053

 Al 
  0.5129474  0.2512153  0.7489728

 Al 
  0.7663445  0.9984110  0.7572930

 Al 
  0.7565529  0.2293463  0.4888830

 Al 
  0.5017264  0.4989778  0.4953678

 Al 
  0.5335120  0.7591307  0.7483875

 Al 
  0.7630068  0.4823053  0.7673494

 Al 
  0.7635365  0.7501460  0.4978627

