32 
charge = 0 
 Al 
  0.9942961  0.9977278  0.0046211

 Al 
  0.0055109  0.2563895  0.2593609

 Al 
  0.2399782  0.0026224  0.2362866

 Al 
  0.2536533  0.2448814  0.9992587

 Al 
  0.4986189  0.0072435  0.9937454

 Al 
  0.4945721  0.2790617  0.2466672

 Al 
  0.7215398  0.0067794  0.2547473

 Al 
  0.7318511  0.2619685  0.0168110

 Al 
  0.0033216  0.4826333  0.0065034

 Al 
  0.9781248  0.7647060  0.2445622

 Al 
  0.2338337  0.4955968  0.2510210

 Al 
  0.2363967  0.7622209  0.0060443

 Al 
  0.0197391  0.0017227  0.5103856

 Al 
  0.0024627  0.2555950  0.7499505

 Al 
  0.2546681  0.9794763  0.7456178

 Al 
  0.2418445  0.2410846  0.5094797

 Al 
  0.0092854  0.5141169  0.4883026

 Al 
  0.9910066  0.7269393  0.7364821

 Al 
  0.2478157  0.4948740  0.7407356

 Al 
  0.2765890  0.7431414  0.4905364

 Al 
  0.4898953  0.5222996  0.9868732

 Al 
  0.5078598  0.7456475  0.2563103

 Al 
  0.7402554  0.5049181  0.2614153

 Al 
  0.7456735  0.7453728  0.0068932

 Al 
  0.4858002  0.9975954  0.4938010

 Al 
  0.5137877  0.2520828  0.7487872

 Al 
  0.7653433  0.9955027  0.7576754

 Al 
  0.7562410  0.2304143  0.4892109

 Al 
  0.5013093  0.4991263  0.4945634

 Al 
  0.5342718  0.7585132  0.7501200

 Al 
  0.7616888  0.4813338  0.7655871

 Al 
  0.7627667  0.7484110  0.4976449

