32 
charge = 0 
 Al 
  0.9955708  0.9947243  0.0037139

 Al 
  0.0050072  0.2556878  0.2597297

 Al 
  0.2421922  0.0023551  0.2365304

 Al 
  0.2517351  0.2472637  0.9991387

 Al 
  0.4987983  0.0091530  0.9922863

 Al 
  0.4952775  0.2792250  0.2465175

 Al 
  0.7218046  0.0071197  0.2544713

 Al 
  0.7321160  0.2595342  0.0163742

 Al 
  0.0043995  0.4839364  0.0077694

 Al 
  0.9799985  0.7653037  0.2443567

 Al 
  0.2354883  0.4969321  0.2518799

 Al 
  0.2343881  0.7628806  0.0042919

 Al 
  0.0202688  0.9995260  0.5098733

 Al 
  0.0026410  0.2534776  0.7544206

 Al 
  0.2536211  0.9785097  0.7431736

 Al 
  0.2402332  0.2413730  0.5078461

 Al 
  0.0091270  0.5125575  0.4899126

 Al 
  0.9920239  0.7276434  0.7374313

 Al 
  0.2458269  0.4955423  0.7402888

 Al 
  0.2754307  0.7425585  0.4897146

 Al 
  0.4880130  0.5209160  0.9883409

 Al 
  0.5079588  0.7445522  0.2537845

 Al 
  0.7404596  0.5065801  0.2629251

 Al 
  0.7449780  0.7449446  0.0075182

 Al 
  0.4844278  0.9966697  0.4934038

 Al 
  0.5126380  0.2509108  0.7490236

 Al 
  0.7666774  0.9994270  0.7571444

 Al 
  0.7566445  0.2290320  0.4888186

 Al 
  0.5018836  0.4989097  0.4956883

 Al 
  0.5331976  0.7593188  0.7477761

 Al 
  0.7634177  0.4826667  0.7679137

 Al 
  0.7637567  0.7507673  0.4979432

