32 
charge = 0 
 Al 
  0.9989802  0.9867123  0.9997215

 Al 
  0.0014913  0.2513960  0.2596357

 Al 
  0.2510148  0.0017660  0.2394572

 Al 
  0.2450869  0.2560133  0.9980645

 Al 
  0.4991015  0.0139869  0.9880687

 Al 
  0.4964705  0.2769157  0.2467217

 Al 
  0.7250978  0.0069242  0.2518229

 Al 
  0.7354970  0.2506336  0.0144436

 Al 
  0.0074675  0.4909064  0.0122581

 Al 
  0.9891379  0.7662455  0.2450522

 Al 
  0.2431130  0.5028699  0.2537325

 Al 
  0.2292708  0.7619648  0.9972860

 Al 
  0.0196612  0.9898866  0.5060034

 Al 
  0.0036681  0.2447255  0.7699285

 Al 
  0.2498292  0.9763267  0.7366207

 Al 
  0.2369214  0.2442565  0.5013267

 Al 
  0.0072088  0.5047560  0.4958703

 Al 
  0.9977266  0.7328152  0.7439545

 Al 
  0.2404225  0.4984617  0.7400933

 Al 
  0.2673927  0.7408173  0.4874338

 Al 
  0.4810950  0.5143879  0.9938320

 Al 
  0.5066024  0.7422479  0.2435288

 Al 
  0.7438258  0.5108113  0.2666192

 Al 
  0.7434409  0.7442441  0.0087681

 Al 
  0.4820789  0.9953233  0.4916910

 Al 
  0.5074848  0.2468875  0.7489741

 Al 
  0.7703715  0.0134399  0.7545295

 Al 
  0.7571593  0.2271657  0.4902109

 Al 
  0.5046990  0.4973727  0.5020519

 Al 
  0.5268365  0.7608039  0.7392493

 Al 
  0.7669150  0.4886305  0.7738491

 Al 
  0.7649324  0.7603077  0.4991981

