32 
charge = 0 
 Al 
  0.9987835  0.9871628  0.0000520

 Al 
  0.0018266  0.2517994  0.2597260

 Al 
  0.2503168  0.0017870  0.2391676

 Al 
  0.2455609  0.2553772  0.9981523

 Al 
  0.4991151  0.0137431  0.9883323

 Al 
  0.4964371  0.2772326  0.2466648

 Al 
  0.7247376  0.0070219  0.2521088

 Al 
  0.7351096  0.2512846  0.0146032

 Al 
  0.0072892  0.4902616  0.0119029

 Al 
  0.9883372  0.7662504  0.2449173

 Al 
  0.2424855  0.5023848  0.2536446

 Al 
  0.2295146  0.7622024  0.9978429

 Al 
  0.0198245  0.9906713  0.5064056

 Al 
  0.0035617  0.2454198  0.7688010

 Al 
  0.2501139  0.9764083  0.7369907

 Al 
  0.2370650  0.2439557  0.5018403

 Al 
  0.0074316  0.5054478  0.4954173

 Al 
  0.9972241  0.7322930  0.7433246

 Al 
  0.2407356  0.4982290  0.7400351

 Al 
  0.2681773  0.7409324  0.4875897

 Al 
  0.4816086  0.5149485  0.9934347

 Al 
  0.5068029  0.7423271  0.2443332

 Al 
  0.7434335  0.5105861  0.2664237

 Al 
  0.7435102  0.7442490  0.0087372

 Al 
  0.4821185  0.9953294  0.4918544

 Al 
  0.5079266  0.2471586  0.7490322

 Al 
  0.7701710  0.0124313  0.7547547

 Al 
  0.7571667  0.2271472  0.4899683

 Al 
  0.5044478  0.4975137  0.5014628

 Al 
  0.5274219  0.7607643  0.7398656

 Al 
  0.7667937  0.4881330  0.7735137

 Al 
  0.7649535  0.7595466  0.4991003

