32 
charge = 0 
 Al 
  0.9993292  0.9859252  0.9990743

 Al 
  0.0008168  0.2505792  0.2594141

 Al 
  0.2523774  0.0017363  0.2400389

 Al 
  0.2441884  0.2572162  0.9979048

 Al 
  0.4990508  0.0143891  0.9875872

 Al 
  0.4965125  0.2762289  0.2468566

 Al 
  0.7258539  0.0066915  0.2512252

 Al 
  0.7363150  0.2493948  0.0141317

 Al 
  0.0077781  0.4922133  0.0129610

 Al 
  0.9907430  0.7661873  0.2453591

 Al 
  0.2443406  0.5038179  0.2538810

 Al 
  0.2288859  0.7614227  0.9961982

 Al 
  0.0192886  0.9883570  0.5051656

 Al 
  0.0038946  0.2433778  0.7720806

 Al 
  0.2492835  0.9762215  0.7359673

 Al 
  0.2366875  0.2448728  0.5003280

 Al 
  0.0067336  0.5033711  0.4967489

 Al 
  0.9987191  0.7338882  0.7452329

 Al 
  0.2398668  0.4989147  0.7402431

 Al 
  0.2657925  0.7406032  0.4871331

 Al 
  0.4801173  0.5132716  0.9945807

 Al 
  0.5061631  0.7421464  0.2419670

 Al 
  0.7446525  0.5111975  0.2669583

 Al 
  0.7433283  0.7442639  0.0087892

 Al 
  0.4820727  0.9953554  0.4913544

 Al 
  0.5066012  0.2463851  0.7488317

 Al 
  0.7707057  0.0153470  0.7540815

 Al 
  0.7571246  0.2272833  0.4907467

 Al 
  0.5052064  0.4970917  0.5032437

 Al 
  0.5256534  0.7608410  0.7380835

 Al 
  0.7670796  0.4896131  0.7744431

 Al 
  0.7648396  0.7617952  0.4993874

