32 
charge = 0 
 Al 
  0.9983479  0.9881689  0.0007165

 Al 
  0.0024801  0.2525853  0.2598634

 Al 
  0.2488998  0.0018440  0.2385996

 Al 
  0.2465522  0.2540518  0.9983367

 Al 
  0.4991189  0.0131739  0.9889003

 Al 
  0.4963430  0.2778093  0.2465707

 Al 
  0.7240557  0.0071766  0.2526496

 Al 
  0.7343881  0.2526372  0.0149225

 Al 
  0.0068920  0.4890043  0.0111900

 Al 
  0.9867507  0.7662170  0.2446859

 Al 
  0.2412170  0.5014046  0.2534417

 Al 
  0.2301025  0.7625996  0.9989728

 Al 
  0.0201017  0.9922603  0.5071692

 Al 
  0.0033625  0.2468356  0.7664658

 Al 
  0.2506980  0.9766262  0.7378187

 Al 
  0.2374103  0.2433790  0.5028810

 Al 
  0.0078424  0.5068140  0.4944904

 Al 
  0.9962217  0.7312918  0.7420982

 Al 
  0.2414274  0.4977526  0.7399559

 Al 
  0.2696970  0.7411762  0.4879115

 Al 
  0.4826704  0.5160636  0.9926031

 Al 
  0.5071568  0.7425424  0.2459742

 Al 
  0.7427046  0.5100750  0.2659819

 Al 
  0.7436773  0.7442862  0.0086369

 Al 
  0.4822744  0.9953901  0.4921638

 Al 
  0.5088015  0.2477365  0.7491213

 Al 
  0.7697119  0.0103250  0.7552040

 Al 
  0.7571568  0.2271942  0.4895401

 Al 
  0.5039552  0.4977934  0.5003094

 Al 
  0.5285716  0.7606480  0.7411527

 Al 
  0.7664707  0.4871355  0.7727711

 Al 
  0.7649436  0.7580033  0.4988998

