32 
charge = 0 
 Al 
  0.9985719  0.9876479  0.0003836

 Al 
  0.0021558  0.2521954  0.2598015

 Al 
  0.2496102  0.0018130  0.2388805

 Al 
  0.2460497  0.2547225  0.9982439

 Al 
  0.4991213  0.0134721  0.9886095

 Al 
  0.4963937  0.2775321  0.2466140

 Al 
  0.7243899  0.0071061  0.2523848

 Al 
  0.7347396  0.2519541  0.0147629

 Al 
  0.0070974  0.4896268  0.0115465

 Al 
  0.9875402  0.7662418  0.2447948

 Al 
  0.2418519  0.5018959  0.2535481

 Al 
  0.2297931  0.7624140  0.9984060

 Al 
  0.0199718  0.9914645  0.5067942

 Al 
  0.0034590  0.2461252  0.7676464

 Al 
  0.2504034  0.9765086  0.7373917

 Al 
  0.2372284  0.2436624  0.5023588

 Al 
  0.0076419  0.5061346  0.4949569

 Al 
  0.9967217  0.7317843  0.7427046

 Al 
  0.2410710  0.4979914  0.7399894

 Al 
  0.2689471  0.7410512  0.4877494

 Al 
  0.4821345  0.5155079  0.9930239

 Al 
  0.5069873  0.7424261  0.2451500

 Al 
  0.7430597  0.5103411  0.2662121

 Al 
  0.7435894  0.7442627  0.0086926

 Al 
  0.4821841  0.9953517  0.4920115

 Al 
  0.5083659  0.2474420  0.7490817

 Al 
  0.7699507  0.0113905  0.7549800

 Al 
  0.7571655  0.2271571  0.4897443

 Al 
  0.5041990  0.4976536  0.5008811

 Al 
  0.5280011  0.7607123  0.7405017

 Al 
  0.7666452  0.4876343  0.7731548

 Al 
  0.7649572  0.7587768  0.4990013

