32 
charge = 0 
 Al 
  0.0002327  0.9841419  0.9963851

 Al 
  0.9975645  0.2464692  0.2575751

 Al 
  0.2581555  0.0018427  0.2426006

 Al 
  0.2409534  0.2615390  0.9976276

 Al 
  0.4983293  0.0146886  0.9860700

 Al 
  0.4963925  0.2720447  0.2478900

 Al 
  0.7301198  0.0049156  0.2479494

 Al 
  0.7409893  0.2447317  0.0127939

 Al 
  0.0083523  0.4987600  0.0162269

 Al 
  0.9983738  0.7650141  0.2473875

 Al 
  0.2495718  0.5077942  0.2541941

 Al 
  0.2291842  0.7577088  0.9915970

 Al 
  0.0168346  0.9820912  0.5006237

 Al 
  0.0052757  0.2380031  0.7803921

 Al 
  0.2471400  0.9769331  0.7344117

 Al 
  0.2364957  0.2479531  0.4960448

 Al 
  0.0038018  0.4968158  0.5005136

 Al 
  0.0028835  0.7394226  0.7514195

 Al 
  0.2384795  0.5007586  0.7415796

 Al 
  0.2577620  0.7399003  0.4858881

 Al 
  0.4764442  0.5080380  0.9971759

 Al 
  0.5032969  0.7427491  0.2355143

 Al 
  0.7493206  0.5119796  0.2677256

 Al 
  0.7433085  0.7449248  0.0081159

 Al 
  0.4833820  0.9962650  0.4895327

 Al 
  0.5022982  0.2447416  0.7476424

 Al 
  0.7708851  0.0221685  0.7520011

 Al 
  0.7565727  0.2292807  0.4940807

 Al 
  0.5077496  0.4958467  0.5090590

 Al 
  0.5198258  0.7603596  0.7338758

 Al 
  0.7665252  0.4940250  0.7759319

 Al 
  0.7634969  0.7680907  0.5001733

