32 
charge = 0 
 Al 
  0.9996201  0.9852903  0.9984518

 Al 
  0.0001423  0.2497562  0.2591406

 Al 
  0.2536793  0.0017252  0.2406081

 Al 
  0.2433691  0.2583139  0.9977711

 Al 
  0.4989666  0.0146750  0.9871677

 Al 
  0.4965274  0.2754826  0.2470175

 Al 
  0.7266484  0.0064130  0.2506002

 Al 
  0.7371826  0.2482526  0.0138310

 Al 
  0.0080244  0.4935325  0.0136478

 Al 
  0.9923321  0.7660685  0.2457081

 Al 
  0.2455163  0.5047238  0.2539961

 Al 
  0.2286471  0.7607990  0.9951574

 Al 
  0.0188679  0.9869016  0.5042956

 Al 
  0.0041384  0.2421056  0.7740793

 Al 
  0.2487723  0.9761967  0.7354364

 Al 
  0.2365254  0.2454990  0.4993713

 Al 
  0.0062200  0.5019974  0.4975843

 Al 
  0.9996745  0.7349859  0.7465163

 Al 
  0.2394065  0.4993429  0.7404361

 Al 
  0.2641713  0.7404138  0.4868484

 Al 
  0.4792127  0.5121714  0.9952577

 Al 
  0.5056730  0.7421229  0.2404869

 Al 
  0.7455287  0.5115019  0.2672306

 Al 
  0.7432540  0.7443208  0.0087570

 Al 
  0.4821630  0.9954445  0.4910054

 Al 
  0.5057225  0.2459420  0.7486535

 Al 
  0.7709457  0.0170858  0.7536421

 Al 
  0.7570615  0.2275024  0.4913395

 Al 
  0.5057151  0.4968182  0.5044391

 Al 
  0.5244703  0.7608287  0.7370192

 Al 
  0.7671415  0.4905685  0.7749356

 Al 
  0.7646824  0.7632184  0.4995656

