32 
charge = 0 
 Al 
  0.9999455  0.9846134  0.9975880

 Al 
  0.9991498  0.2485236  0.2586394

 Al 
  0.2554985  0.0017413  0.2414200

 Al 
  0.2422999  0.2597421  0.9976363

 Al 
  0.4987822  0.0148854  0.9866529

 Al 
  0.4965051  0.2742723  0.2473034

 Al 
  0.7278947  0.0059180  0.2496300

 Al 
  0.7385538  0.2467365  0.0134090

 Al 
  0.0082706  0.4955076  0.0146466

 Al 
  0.9946612  0.7657802  0.2462935

 Al 
  0.2471610  0.5059849  0.2541149

 Al 
  0.2285691  0.7597396  0.9937045

 Al 
  0.0181600  0.9848943  0.5029454

 Al 
  0.0045344  0.2403718  0.7767635

 Al 
  0.2480818  0.9763143  0.7348572

 Al 
  0.2364041  0.2464383  0.4980310

 Al 
  0.0053834  0.4999901  0.4987538

 Al 
  0.0010061  0.7366492  0.7484122

 Al 
  0.2388941  0.4999307  0.7407987

 Al 
  0.2617420  0.7401750  0.4864536

 Al 
  0.4780122  0.5105713  0.9961264

 Al 
  0.5048550  0.7422256  0.2384449

 Al 
  0.7469061  0.5118101  0.2675202

 Al 
  0.7432107  0.7444780  0.0086110

 Al 
  0.4824662  0.9956735  0.4904633

 Al 
  0.5044255  0.2453888  0.7483293

 Al 
  0.7711165  0.0193456  0.7530048

 Al 
  0.7569192  0.2280085  0.4923085

 Al 
  0.5064774  0.4964272  0.5062076

 Al 
  0.5227105  0.7607247  0.7356319

 Al 
  0.7670623  0.4919336  0.7754864

 Al 
  0.7643384  0.7652047  0.4998119

