32 
charge = 0 
 Al 
  0.0001980  0.9841765  0.9965992

 Al 
  0.9978751  0.2468826  0.2578103

 Al 
  0.2576605  0.0018155  0.2423840

 Al 
  0.2411811  0.2612371  0.9976041

 Al 
  0.4984345  0.0147802  0.9861616

 Al 
  0.4964210  0.2725113  0.2477612

 Al 
  0.7296582  0.0051322  0.2482922

 Al 
  0.7404881  0.2450832  0.0129078

 Al 
  0.0083684  0.4981127  0.0159163

 Al 
  0.9976462  0.7651960  0.2471598

 Al 
  0.2491201  0.5074613  0.2541879

 Al 
  0.2289862  0.7581382  0.9919880

 Al 
  0.0171130  0.9825962  0.5010940

 Al 
  0.0051186  0.2384238  0.7797473

 Al 
  0.2473083  0.9767660  0.7344537

 Al 
  0.2364499  0.2476573  0.4964197

 Al 
  0.0041384  0.4974345  0.5001770

 Al 
  0.0025457  0.7388681  0.7508354

 Al 
  0.2385216  0.5006076  0.7414064

 Al 
  0.2585516  0.7399436  0.4859908

 Al 
  0.4767153  0.5085330  0.9970039

 Al 
  0.5036273  0.7426105  0.2360564

 Al 
  0.7488280  0.5119771  0.2677095

 Al 
  0.7432726  0.7448171  0.0082397

 Al 
  0.4831592  0.9961277  0.4897208

 Al 
  0.5027239  0.2448456  0.7477934

 Al 
  0.7709841  0.0216957  0.7521979

 Al 
  0.7566519  0.2289850  0.4937132

 Al 
  0.5074934  0.4959556  0.5084983

 Al 
  0.5204000  0.7604500  0.7341741

 Al 
  0.7666687  0.4936228  0.7758873

 Al 
  0.7636924  0.7675548  0.5001052

