32 
charge = 0 
 Al 
  0.9994815  0.9855886  0.9987587

 Al 
  0.0004789  0.2501683  0.2592842

 Al 
  0.2530357  0.0017289  0.2403260

 Al 
  0.2437689  0.2577781  0.9978343

 Al 
  0.4990124  0.0145463  0.9873707

 Al 
  0.4965237  0.2758626  0.2469346

 Al 
  0.7262475  0.0065578  0.2509158

 Al 
  0.7367432  0.2488107  0.0139795

 Al 
  0.0079093  0.4928729  0.0133063

 Al 
  0.9915413  0.7661353  0.2455287

 Al 
  0.2449359  0.5042770  0.2539416

 Al 
  0.2287486  0.7611207  0.9956710

 Al 
  0.0190845  0.9876182  0.5047337

 Al 
  0.0040147  0.2427306  0.7731003

 Al 
  0.2490236  0.9761980  0.7356864

 Al 
  0.2365984  0.2451859  0.4998441

 Al 
  0.0064811  0.5026818  0.4971722

 Al 
  0.9992018  0.7344352  0.7458752

 Al 
  0.2396243  0.4991325  0.7403346

 Al 
  0.2649832  0.7405054  0.4869883

 Al 
  0.4796545  0.5127184  0.9949285

 Al 
  0.5059242  0.7421254  0.2412158

 Al 
  0.7450856  0.5113596  0.2671031

 Al 
  0.7432875  0.7442874  0.0087805

 Al 
  0.4821061  0.9953938  0.4911811

 Al 
  0.5061606  0.2461561  0.7487463

 Al 
  0.7708381  0.0162381  0.7538600

 Al 
  0.7570962  0.2273811  0.4910376

 Al 
  0.5054601  0.4969531  0.5038426

 Al 
  0.5250619  0.7608410  0.7375377

 Al 
  0.7671229  0.4900945  0.7747017

 Al 
  0.7647678  0.7625167  0.4994777

