32 
charge = 0 
 Al 
  0.0001782  0.9849042  0.9951661

 Al 
  0.9948654  0.2425165  0.2549045

 Al 
  0.2619264  0.0022437  0.2440993

 Al 
  0.2398074  0.2630909  0.9985248

 Al 
  0.4970756  0.0127098  0.9857000

 Al 
  0.4961079  0.2672677  0.2493206

 Al 
  0.7348399  0.0025333  0.2446797

 Al 
  0.7458863  0.2425499  0.0119239

 Al 
  0.0074477  0.5046829  0.0189793

 Al 
  0.0048203  0.7626924  0.2495421

 Al 
  0.2531286  0.5101666  0.2540580

 Al 
  0.2327533  0.7533860  0.9887048

 Al 
  0.0140476  0.9788377  0.4961957

 Al 
  0.0068957  0.2353992  0.7844921

 Al 
  0.2460423  0.9795183  0.7348634

 Al 
  0.2374907  0.2504938  0.4930350

 Al 
  0.0001559  0.4914286  0.5034887

 Al 
  0.0050394  0.7445102  0.7562794

 Al 
  0.2389288  0.5018440  0.7435214

 Al 
  0.2506609  0.7397901  0.4852767

 Al 
  0.4749666  0.5036186  0.9979345

 Al 
  0.4998775  0.7447614  0.2314130

 Al 
  0.7540345  0.5114351  0.2673741

 Al 
  0.7439854  0.7463678  0.0064378

 Al 
  0.4862903  0.9978751  0.4877989

 Al 
  0.4982451  0.2442565  0.7459779

 Al 
  0.7687218  0.0244654  0.7502512

 Al 
  0.7556482  0.2328994  0.4976820

 Al 
  0.5101814  0.4950349  0.5139795

 Al 
  0.5144226  0.7592137  0.7322472

 Al 
  0.7644733  0.4974209  0.7753935

 Al 
  0.7610539  0.7720843  0.5007549

