32 
charge = 0 
 Al 
  0.0002562  0.9844537  0.9954185

 Al 
  0.9957527  0.2439013  0.2559106

 Al 
  0.2607953  0.0020791  0.2436934

 Al 
  0.2400141  0.2628013  0.9980706

 Al 
  0.4975571  0.0135996  0.9857408

 Al 
  0.4962019  0.2689929  0.2487847

 Al 
  0.7331271  0.0034206  0.2458170

 Al 
  0.7441674  0.2430907  0.0121888

 Al 
  0.0079055  0.5026707  0.0180573

 Al 
  0.0026657  0.7636157  0.2488107

 Al 
  0.2520259  0.5094995  0.2541359

 Al 
  0.2311878  0.7549193  0.9895525

 Al 
  0.0150376  0.9796582  0.4977155

 Al 
  0.0063103  0.2360304  0.7834600

 Al 
  0.2463306  0.9784219  0.7345626

 Al 
  0.2370427  0.2496696  0.4939817

 Al 
  0.0015086  0.4932083  0.5024813

 Al 
  0.0045047  0.7427788  0.7547362

 Al 
  0.2386231  0.5015333  0.7427949

 Al 
  0.2530494  0.7397703  0.4854054

 Al 
  0.4752611  0.5051087  0.9978306

 Al 
  0.5011126  0.7439335  0.2326481

 Al 
  0.7524009  0.5117234  0.2675895

 Al 
  0.7436897  0.7457861  0.0071160

 Al 
  0.4851332  0.9972650  0.4883842

 Al 
  0.4996671  0.2443382  0.7465930

 Al 
  0.7697107  0.0240842  0.7508403

 Al 
  0.7559972  0.2314898  0.4964185

 Al 
  0.5093337  0.4952700  0.5123533

 Al 
  0.5163012  0.7596592  0.7325900

 Al 
  0.7653099  0.4963158  0.7757586

 Al 
  0.7620192  0.7709086  0.5005606

