32 
charge = 0 
 Al 
  0.0002797  0.9842570  0.9956772

 Al 
  0.9963504  0.2447812  0.2565145

 Al 
  0.2599748  0.0019875  0.2433691

 Al 
  0.2402492  0.2624833  0.9978603

 Al 
  0.4978417  0.0140637  0.9858113

 Al 
  0.4962675  0.2700634  0.2484617

 Al 
  0.7320714  0.0039565  0.2465460

 Al 
  0.7430721  0.2435523  0.0123769

 Al 
  0.0081221  0.5013564  0.0174484

 Al 
  0.0012400  0.7641441  0.2483281

 Al 
  0.2512499  0.5089859  0.2541706

 Al 
  0.2303599  0.7558896  0.9901799

 Al 
  0.0156626  0.9803549  0.4987030

 Al 
  0.0059465  0.2365836  0.7825863

 Al 
  0.2465645  0.9778278  0.7344401

 Al 
  0.2368088  0.2491090  0.4946389

 Al 
  0.0023291  0.4943976  0.5018279

 Al 
  0.0040444  0.7416489  0.7536657

 Al 
  0.2385043  0.5012994  0.7423556

 Al 
  0.2546235  0.7397889  0.4855378

 Al 
  0.4755705  0.5060851  0.9976808

 Al 
  0.5018823  0.7434706  0.2335392

 Al 
  0.7513489  0.5118583  0.2676786

 Al 
  0.7435313  0.7454569  0.0074996

 Al 
  0.4844686  0.9968987  0.4887704

 Al 
  0.5005680  0.2444334  0.7469704

 Al 
  0.7702156  0.0236164  0.7512264

 Al 
  0.7562076  0.2306668  0.4956128

 Al 
  0.5087929  0.4954470  0.5112643

 Al 
  0.5174991  0.7599215  0.7329266

 Al 
  0.7657814  0.4955695  0.7758997

 Al 
  0.7625736  0.7700411  0.5004344

