32 
charge = 0 
 Al 
  0.0002809  0.9841926  0.9958307

 Al 
  0.9966512  0.2452106  0.2567979

 Al 
  0.2595428  0.0019454  0.2431922

 Al 
  0.2403953  0.2622853  0.9977798

 Al 
  0.4979741  0.0142580  0.9858608

 Al 
  0.4962997  0.2705782  0.2483095

 Al 
  0.7315653  0.0042102  0.2469036

 Al 
  0.7425387  0.2438147  0.0124759

 Al 
  0.0082038  0.5007042  0.0171440

 Al 
  0.0005272  0.7643842  0.2480892

 Al 
  0.2508477  0.5087087  0.2541830

 Al 
  0.2300072  0.7563598  0.9905128

 Al 
  0.0159646  0.9807460  0.4991894

 Al 
  0.0057720  0.2368992  0.7820937

 Al 
  0.2466945  0.9775692  0.7344055

 Al 
  0.2367123  0.2488243  0.4949780

 Al 
  0.0027177  0.4949953  0.5015024

 Al 
  0.0037832  0.7410896  0.7531174

 Al 
  0.2384709  0.5011732  0.7421489

 Al 
  0.2554069  0.7398074  0.4856146

 Al 
  0.4757574  0.5065715  0.9975806

 Al 
  0.5022499  0.7432652  0.2340070

 Al 
  0.7508341  0.5119078  0.2677070

 Al 
  0.7434632  0.7453084  0.0076729

 Al 
  0.4841679  0.9967279  0.4889622

 Al 
  0.5010074  0.2444953  0.7471487

 Al 
  0.7704247  0.0233194  0.7514195

 Al 
  0.7563054  0.2302893  0.4952205

 Al 
  0.5085280  0.4955411  0.5107173

 Al 
  0.5180882  0.7600416  0.7331283

 Al 
  0.7659918  0.4951908  0.7759393

 Al 
  0.7628273  0.7695807  0.5003700

