32 
charge = 0 
 Al 
  0.0002091  0.9847347  0.9952317

 Al 
  0.9951599  0.2429880  0.2552535

 Al 
  0.2615625  0.0021843  0.2439743

 Al 
  0.2398569  0.2630192  0.9983540

 Al 
  0.4972427  0.0130328  0.9857062

 Al 
  0.4961376  0.2678593  0.2491349

 Al 
  0.7342495  0.0028414  0.2450646

 Al 
  0.7453035  0.2427108  0.0120093

 Al 
  0.0076184  0.5040060  0.0186711

 Al 
  0.0040988  0.7630192  0.2492983

 Al 
  0.2527684  0.5099587  0.2540877

 Al 
  0.2321865  0.7539070  0.9889746

 Al 
  0.0143842  0.9790802  0.4967081

 Al 
  0.0066952  0.2355824  0.7841864

 Al 
  0.2461301  0.9791248  0.7347483

 Al 
  0.2373286  0.2502215  0.4933456

 Al 
  0.0006237  0.4920227  0.5031484

 Al 
  0.0048822  0.7439273  0.7557745

 Al 
  0.2388112  0.5017462  0.7432701

 Al 
  0.2514616  0.7397765  0.4853089

 Al 
  0.4750408  0.5041211  0.9979159

 Al 
  0.5003007  0.7444669  0.2318128

 Al 
  0.7534825  0.5115427  0.2674571

 Al 
  0.7438790  0.7461623  0.0066779

 Al 
  0.4858819  0.9976635  0.4879944

 Al 
  0.4987303  0.2442750  0.7461883

 Al 
  0.7690832  0.0243812  0.7504492

 Al 
  0.7557695  0.2324056  0.4972526

 Al 
  0.5098931  0.4951092  0.5134375

 Al 
  0.5150611  0.7593696  0.7323400

 Al 
  0.7647691  0.4970534  0.7755359

 Al 
  0.7613942  0.7717093  0.5006893

