32 
charge = 0 
 Al 
  0.9998812  0.9865762  0.9953245

 Al 
  0.9928531  0.2388954  0.2520915

 Al 
  0.2640859  0.0027598  0.2446550

 Al 
  0.2400141  0.2628756  0.0003428

 Al 
  0.4957168  0.0097248  0.9858745

 Al 
  0.4959779  0.2626046  0.2508032

 Al 
  0.7395711  0.0000260  0.2418049

 Al 
  0.7502401  0.2419967  0.0113336

 Al 
  0.0057126  0.5096047  0.0211858

 Al 
  0.0100032  0.7598473  0.2512004

 Al 
  0.2554911  0.5111678  0.2537857

 Al 
  0.2380414  0.7494963  0.9871690

 Al 
  0.0114722  0.9781236  0.4924781

 Al 
  0.0084303  0.2349253  0.7854760

 Al 
  0.2456549  0.9831654  0.7360341

 Al 
  0.2389832  0.2523303  0.4909695

 Al 
  0.9963987  0.4872222  0.5061098

 Al 
  0.0054911  0.7487822  0.7595280

 Al 
  0.2401886  0.5023823  0.7455188

 Al 
  0.2449248  0.7400933  0.4854537

 Al 
  0.4752030  0.4998960  0.9976400

 Al 
  0.4966066  0.7473392  0.2289243

 Al 
  0.7580924  0.5103930  0.2664497

 Al 
  0.7449421  0.7481783  0.0043426

 Al 
  0.4897852  0.9995557  0.4864314

 Al 
  0.4944619  0.2442998  0.7443555

 Al 
  0.7652480  0.0238218  0.7488293

 Al 
  0.7546879  0.2370873  0.5009047

 Al 
  0.5123509  0.4946686  0.5177293

 Al 
  0.5094946  0.7579600  0.7322001

 Al 
  0.7619004  0.4999913  0.7738119

 Al 
  0.7580937  0.7742104  0.5012413

