32 
charge = 0 
 Al 
  0.9997550  0.9875031  0.9957564

 Al 
  0.9920647  0.2372024  0.2507302

 Al 
  0.2647691  0.0030370  0.2447107

 Al 
  0.2404027  0.2623831  0.0014764

 Al 
  0.4950547  0.0080974  0.9860477

 Al 
  0.4959903  0.2603522  0.2515123

 Al 
  0.7419063  0.9987649  0.2405104

 Al 
  0.7521855  0.2420821  0.0110650

 Al 
  0.0046854  0.5117531  0.0221177

 Al 
  0.0122469  0.7583300  0.2518291

 Al 
  0.2564106  0.5113051  0.2536483

 Al 
  0.2409930  0.7477687  0.9867135

 Al 
  0.0102755  0.9784194  0.4908705

 Al 
  0.0091295  0.2351889  0.7852062

 Al 
  0.2456128  0.9852136  0.7366900

 Al 
  0.2397951  0.2530555  0.4901552

 Al 
  0.9945807  0.4854240  0.5073808

 Al 
  0.0053141  0.7506844  0.7607012

 Al 
  0.2409237  0.5025246  0.7464717

 Al 
  0.2424632  0.7403408  0.4858151

 Al 
  0.4757760  0.4981857  0.9973071

 Al 
  0.4950881  0.7486993  0.2280357

 Al 
  0.7598770  0.5098151  0.2658581

 Al 
  0.7454495  0.7491448  0.0032325

 Al 
  0.4915957  0.0003564  0.4858757

 Al 
  0.4926254  0.2443839  0.7436303

 Al 
  0.7632630  0.0228739  0.7482191

 Al 
  0.7542300  0.2392481  0.5023699

 Al 
  0.5133372  0.4946178  0.5192490

 Al 
  0.5071333  0.7573585  0.7325058

 Al 
  0.7605453  0.5010829  0.7728429

 Al 
  0.7565182  0.7748032  0.5014653

