32 
charge = 0 
 Al 
  0.9999728  0.9860193  0.9951624

 Al 
  0.9934125  0.2399856  0.2529565

 Al 
  0.2635426  0.0025927  0.2445560

 Al 
  0.2398545  0.2630687  0.9997055

 Al 
  0.4961363  0.0107037  0.9857903

 Al 
  0.4959965  0.2640290  0.2503490

 Al 
  0.7381083  0.0008081  0.2426551

 Al 
  0.7489555  0.2420499  0.0115044

 Al 
  0.0063066  0.5081716  0.0205522

 Al 
  0.0085033  0.7607643  0.2507450

 Al 
  0.2548438  0.5109710  0.2538736

 Al 
  0.2362915  0.7506411  0.9875427

 Al 
  0.0122444  0.9781372  0.4935560

 Al 
  0.0079724  0.2349092  0.7854153

 Al 
  0.2457242  0.9819588  0.7356418

 Al 
  0.2384944  0.2518217  0.4915400

 Al 
  0.9975546  0.4884313  0.5053116

 Al 
  0.0054824  0.7475298  0.7586605

 Al 
  0.2397567  0.5022561  0.7449087

 Al 
  0.2465806  0.7399671  0.4853176

 Al 
  0.4749876  0.5010012  0.9977971

 Al 
  0.4975917  0.7465113  0.2295802

 Al 
  0.7569044  0.5107396  0.2667776

 Al 
  0.7446327  0.7475942  0.0050158

 Al 
  0.4886738  0.9990434  0.4868175

 Al 
  0.4956166  0.2442602  0.7448381

 Al 
  0.7664126  0.0242302  0.7492401

 Al 
  0.7549812  0.2357606  0.4999480

 Al 
  0.5117061  0.4947416  0.5166737

 Al 
  0.5109896  0.7583449  0.7321061

 Al 
  0.7627246  0.4992575  0.7743664

 Al 
  0.7590453  0.7737006  0.5010965

