32 
charge = 0 
 Al 
  0.9999270  0.9862915  0.9952317

 Al 
  0.9931303  0.2394448  0.2525296

 Al 
  0.2638223  0.0026744  0.2446117

 Al 
  0.2399238  0.2629857  0.0000111

 Al 
  0.4959297  0.0102260  0.9858287

 Al 
  0.4959841  0.2633248  0.2505730

 Al 
  0.7388285  0.0004232  0.2422331

 Al 
  0.7495953  0.2420128  0.0114190

 Al 
  0.0060195  0.5088869  0.0208703

 Al 
  0.0092520  0.7603163  0.2509752

 Al 
  0.2551705  0.5110799  0.2538303

 Al 
  0.2371430  0.7500705  0.9873496

 Al 
  0.0118620  0.9781100  0.4930177

 Al 
  0.0082001  0.2349017  0.7854698

 Al 
  0.2456859  0.9825454  0.7358336

 Al 
  0.2387332  0.2520779  0.4912529

 Al 
  0.9969841  0.4878273  0.5057064

 Al 
  0.0054997  0.7481536  0.7591023

 Al 
  0.2399658  0.5023229  0.7452106

 Al 
  0.2457527  0.7400265  0.4853757

 Al 
  0.4750792  0.5004517  0.9977254

 Al 
  0.4971029  0.7469160  0.2292461

 Al 
  0.7574972  0.5105713  0.2666205

 Al 
  0.7447837  0.7478801  0.0046854

 Al 
  0.4892196  0.9992971  0.4866232

 Al 
  0.4950473  0.2442775  0.7445968

 Al 
  0.7658470  0.0240496  0.7490347

 Al 
  0.7548364  0.2364116  0.5004232

 Al 
  0.5120266  0.4947020  0.5172034

 Al 
  0.5102507  0.7581543  0.7321420

 Al 
  0.7623212  0.4996250  0.7740991

 Al 
  0.7585800  0.7739654  0.5011683

