32 
charge = 0 
 Al 
  0.9997946  0.9871838  0.9955881

 Al 
  0.9923184  0.2377716  0.2511905

 Al 
  0.2645599  0.0029417  0.2447057

 Al 
  0.2402542  0.2625736  0.0010754

 Al 
  0.4952787  0.0086580  0.9859846

 Al 
  0.4959804  0.2611158  0.2512735

 Al 
  0.7411118  0.9991956  0.2409423

 Al 
  0.7515383  0.2420313  0.0111566

 Al 
  0.0050455  0.5110415  0.0218120

 Al 
  0.0115031  0.7588535  0.2516286

 Al 
  0.2561111  0.5112816  0.2536941

 Al 
  0.2399696  0.7483429  0.9868509

 Al 
  0.0106789  0.9782771  0.4914027

 Al 
  0.0088968  0.2350688  0.7853448

 Al 
  0.2456178  0.9845008  0.7364648

 Al 
  0.2395154  0.2528204  0.4904200

 Al 
  0.9951945  0.4860180  0.5069477

 Al 
  0.0053982  0.7500495  0.7603287

 Al 
  0.2406688  0.5024838  0.7461512

 Al 
  0.2432763  0.7402505  0.4856715

 Al 
  0.4755507  0.4987612  0.9974308

 Al 
  0.4955980  0.7482315  0.2283179

 Al 
  0.7592854  0.5100144  0.2660673

 Al 
  0.7452750  0.7488119  0.0036137

 Al 
  0.4909757  0.0000866  0.4860564

 Al 
  0.4932503  0.2443530  0.7438704

 Al 
  0.7639535  0.0232328  0.7484209

 Al 
  0.7543847  0.2385080  0.5018786

 Al 
  0.5130080  0.4946265  0.5187540

 Al 
  0.5079340  0.7575603  0.7323821

 Al 
  0.7610106  0.5007215  0.7731833

 Al 
  0.7570615  0.7746300  0.5013898

