32 
charge = 0 
 Al 
  0.9997735  0.9911551  0.9988590

 Al 
  0.9903062  0.2314861  0.2460534

 Al 
  0.2655797  0.0041607  0.2440213

 Al 
  0.2429880  0.2588350  0.0067843

 Al 
  0.4927021  0.0017524  0.9869128

 Al 
  0.4966796  0.2520754  0.2538575

 Al 
  0.7506633  0.9938184  0.2363423

 Al 
  0.7582830  0.2439409  0.0097904

 Al 
  0.0002265  0.5183159  0.0245545

 Al 
  0.0191599  0.7521620  0.2531088

 Al 
  0.2589946  0.5100676  0.2532820

 Al 
  0.2532672  0.7424533  0.9861764

 Al 
  0.0059799  0.9826531  0.4859957

 Al 
  0.0112928  0.2383112  0.7807411

 Al 
  0.2460745  0.9940832  0.7392901

 Al 
  0.2430597  0.2549861  0.4879771

 Al 
  0.9883434  0.4798983  0.5122977

 Al 
  0.0030357  0.7569749  0.7631404

 Al 
  0.2438741  0.5025110  0.7497339

 Al 
  0.2351480  0.7416675  0.4889622

 Al 
  0.4804180  0.4920771  0.9955695

 Al 
  0.4900846  0.7539862  0.2261472

 Al 
  0.7653346  0.5075467  0.2629536

 Al 
  0.7473553  0.7530147  0.9987389

 Al 
  0.4985855  0.0031063  0.4844525

 Al 
  0.4856121  0.2446364  0.7415635

 Al 
  0.7547052  0.0168333  0.7464804

 Al 
  0.7525271  0.2476313  0.5072905

 Al 
  0.5164435  0.4951723  0.5232018

 Al 
  0.4982427  0.7553203  0.7349512

 Al 
  0.7551309  0.5045320  0.7686253

 Al 
  0.7501287  0.7748329  0.5021447

