32 
charge = 0 
 Al 
  0.9996461  0.9898582  0.9975373

 Al 
  0.9906812  0.2333436  0.2475818

 Al 
  0.2656143  0.0037572  0.2444124

 Al 
  0.2419002  0.2603794  0.0047547

 Al 
  0.4934941  0.0039689  0.9865873

 Al 
  0.4962923  0.2549416  0.2531174

 Al 
  0.7476103  0.9955955  0.2376615

 Al 
  0.7563908  0.2430226  0.0103200

 Al 
  0.0018712  0.5163135  0.0239357

 Al 
  0.0170264  0.7543896  0.2528637

 Al 
  0.2582236  0.5108212  0.2533662

 Al 
  0.2488058  0.7440845  0.9861777

 Al 
  0.0074712  0.9806111  0.4874920

 Al 
  0.0106368  0.2368521  0.7829068

 Al 
  0.2458047  0.9907715  0.7383607

 Al 
  0.2418865  0.2544441  0.4885835

 Al 
  0.9903730  0.4816061  0.5105378

 Al 
  0.0040939  0.7549205  0.7626318

 Al 
  0.2428358  0.5026137  0.7486610

 Al 
  0.2373348  0.7411428  0.4874957

 Al 
  0.4783092  0.4941785  0.9962316

 Al 
  0.4916811  0.7521286  0.2265445

 Al 
  0.7636751  0.5083424  0.2640958

 Al 
  0.7467056  0.7516299  0.0003676

 Al 
  0.4961202  0.0021979  0.4848213

 Al 
  0.4881033  0.2445869  0.7421452

 Al 
  0.7578845  0.0193468  0.7469779

 Al 
  0.7531335  0.2446760  0.5056668

 Al 
  0.5154906  0.4948332  0.5221573

 Al 
  0.5013824  0.7559873  0.7338795

 Al 
  0.7570801  0.5034268  0.7701772

 Al 
  0.7524392  0.7752277  0.5019492

