32 
charge = 0 
 Al 
  0.9996906  0.9881627  0.9961660

 Al 
  0.9915920  0.2360626  0.2498057

 Al 
  0.2651243  0.0032362  0.2446847

 Al 
  0.2407566  0.2619252  0.0023390

 Al 
  0.4946018  0.0069378  0.9861876

 Al 
  0.4960336  0.2588015  0.2519900

 Al 
  0.7435300  0.9978776  0.2396552

 Al 
  0.7534615  0.2422479  0.0108720

 Al 
  0.0039243  0.5131503  0.0227043

 Al 
  0.0137060  0.7572410  0.2521954

 Al 
  0.2569823  0.5112841  0.2535568

 Al 
  0.2431377  0.7466425  0.9864846

 Al 
  0.0094649  0.9788364  0.4898334

 Al 
  0.0095899  0.2355218  0.7847792

 Al 
  0.2456265  0.9867160  0.7371578

 Al 
  0.2403767  0.2535023  0.4896515

 Al 
  0.9933432  0.4842582  0.5082682

 Al 
  0.0050728  0.7519442  0.7613794

 Al 
  0.2414559  0.5025865  0.7471165

 Al 
  0.2408779  0.7405425  0.4861740

 Al 
  0.4763316  0.4970261  0.9970323

 Al 
  0.4940721  0.7496634  0.2275184

 Al 
  0.7610403  0.5094018  0.2654015

 Al 
  0.7458071  0.7498366  0.0024380

 Al 
  0.4928704  0.0008972  0.4855317

 Al 
  0.4913482  0.2444471  0.7431637

 Al 
  0.7618039  0.0220311  0.7478293

 Al 
  0.7539156  0.2407752  0.5033464

 Al 
  0.5139894  0.4946302  0.5201933

 Al 
  0.5055010  0.7569526  0.7328115

 Al 
  0.7595812  0.5017920  0.7721214

 Al 
  0.7553896  0.7750681  0.5016125

