32 
charge = 0 
 Al 
  0.9996399  0.9891812  0.9969383

 Al 
  0.9909918  0.2343931  0.2484431

 Al 
  0.2654893  0.0035481  0.2445547

 Al 
  0.2414051  0.2610589  0.0037572

 Al 
  0.4939273  0.0051495  0.9864227

 Al 
  0.4961611  0.2564663  0.2526855

 Al 
  0.7459940  0.9965101  0.2384226

 Al 
  0.7552794  0.2426551  0.0105539

 Al 
  0.0027065  0.5151218  0.0234939

 Al 
  0.0157703  0.7555369  0.2526434

 Al 
  0.2577632  0.5110749  0.2534330

 Al 
  0.2465163  0.7450498  0.9862569

 Al 
  0.0082570  0.9797832  0.4883743

 Al 
  0.0102421  0.2362433  0.7837830

 Al 
  0.2457106  0.9891169  0.7378793

 Al 
  0.2412814  0.2541000  0.4889733

 Al 
  0.9915215  0.4826098  0.5096295

 Al 
  0.0045419  0.7537733  0.7622110

 Al 
  0.2422850  0.5026236  0.7480620

 Al 
  0.2386602  0.7408903  0.4868955

 Al 
  0.4774219  0.4952985  0.9965633

 Al 
  0.4925981  0.7511472  0.2268749

 Al 
  0.7626825  0.5087644  0.2646416

 Al 
  0.7463517  0.7509108  0.0012004

 Al 
  0.4948270  0.0016930  0.4850750

 Al 
  0.4893978  0.2445386  0.7425189

 Al 
  0.7594797  0.0205039  0.7472922

 Al 
  0.7534441  0.2431216  0.5047696

 Al 
  0.5149225  0.4947218  0.5214507

 Al 
  0.5030197  0.7563598  0.7334068

 Al 
  0.7580850  0.5028018  0.7709680

 Al 
  0.7536261  0.7752525  0.5018242

