32 
charge = 0 
 Al 
  0.0008428  0.9938765  0.0022907

 Al 
  0.9908334  0.2286075  0.2436080

 Al 
  0.2639696  0.0049552  0.2426662

 Al 
  0.2459185  0.2543154  0.0115353

 Al 
  0.4913581  0.9976103  0.9875749

 Al 
  0.4984914  0.2462799  0.2547560

 Al 
  0.7568041  0.9898433  0.2343498

 Al 
  0.7608893  0.2469531  0.0079860

 Al 
  0.9967477  0.5209185  0.0242513

 Al 
  0.0221524  0.7475174  0.2527226

 Al 
  0.2602198  0.5070628  0.2534120

 Al 
  0.2627197  0.7401688  0.9868026

 Al 
  0.0026286  0.9893248  0.4838585

 Al 
  0.0120167  0.2428197  0.7736907

 Al 
  0.2470410  0.0017573  0.7413668

 Al 
  0.2456067  0.2555913  0.4874301

 Al 
  0.9852582  0.4775358  0.5162306

 Al 
  0.9999468  0.7606331  0.7626912

 Al 
  0.2458467  0.5018836  0.7516088

 Al 
  0.2325479  0.7429422  0.4939669

 Al 
  0.4873100  0.4877259  0.9942503

 Al 
  0.4877877  0.7575739  0.2267982

 Al 
  0.7673123  0.5059873  0.2600193

 Al 
  0.7484283  0.7559254  0.9951723

 Al 
  0.5036830  0.0046706  0.4843597

 Al 
  0.4803388  0.2444297  0.7411527

 Al 
  0.7473467  0.0102396  0.7460262

 Al 
  0.7509863  0.2535233  0.5103943

 Al 
  0.5175028  0.4966796  0.5235904

 Al 
  0.4914744  0.7541582  0.7379882

 Al 
  0.7508576  0.5064502  0.7652554

 Al 
  0.7451339  0.7720373  0.5021930

