32 
charge = 0 
 Al 
  0.0020692  0.9952218  0.0042176

 Al 
  0.9920957  0.2281545  0.2429843

 Al 
  0.2620068  0.0052002  0.2417318

 Al 
  0.2477711  0.2512586  0.0140909

 Al 
  0.4910685  0.9961301  0.9878731

 Al 
  0.5003317  0.2435424  0.2545654

 Al 
  0.7595812  0.9876516  0.2339204

 Al 
  0.7611641  0.2491312  0.0064168

 Al 
  0.9952069  0.5209445  0.0226103

 Al 
  0.0225769  0.7454161  0.2519900

 Al 
  0.2607074  0.5045765  0.2536867

 Al 
  0.2671242  0.7397542  0.9874870

 Al 
  0.0006163  0.9942404  0.4836060

 Al 
  0.0117903  0.2460089  0.7684694

 Al 
  0.2476746  0.0059811  0.7425152

 Al 
  0.2469531  0.2555628  0.4876999

 Al 
  0.9847879  0.4773972  0.5184112

 Al 
  0.9979531  0.7620699  0.7613769

 Al 
  0.2465893  0.5012895  0.7523019

 Al 
  0.2326853  0.7436860  0.4979555

 Al 
  0.4926600  0.4855205  0.9938184

 Al 
  0.4876083  0.7589414  0.2284577

 Al 
  0.7670264  0.5053067  0.2581865

 Al 
  0.7486424  0.7573326  0.9933518

 Al 
  0.5061334  0.0051569  0.4848770

 Al 
  0.4778278  0.2441315  0.7415685

 Al 
  0.7431711  0.0062423  0.7462155

 Al 
  0.7498886  0.2560381  0.5119239

 Al 
  0.5171229  0.4980991  0.5223207

 Al 
  0.4879499  0.7537325  0.7399460

 Al 
  0.7486040  0.5071642  0.7635488

 Al 
  0.7426105  0.7691179  0.5018749

