32 
charge = 0 
 Al 
  0.0010136  0.9941117  0.0026224

 Al 
  0.9909967  0.2284627  0.2434644

 Al 
  0.2636949  0.0050109  0.2425140

 Al 
  0.2462205  0.2538241  0.0119759

 Al 
  0.4912814  0.9973133  0.9876281

 Al 
  0.4987513  0.2457948  0.2547646

 Al 
  0.7573066  0.9894745  0.2342421

 Al 
  0.7609957  0.2472972  0.0077558

 Al 
  0.9964606  0.5210002  0.0240619

 Al 
  0.0222860  0.7471350  0.2526212

 Al 
  0.2603077  0.5066853  0.2534478

 Al 
  0.2635154  0.7400587  0.9869016

 Al 
  0.0023019  0.9900933  0.4837632

 Al 
  0.0120143  0.2433246  0.7728763

 Al 
  0.2471474  0.0024739  0.7415611

 Al 
  0.2458356  0.2556049  0.4874449

 Al 
  0.9851096  0.4774454  0.5165982

 Al 
  0.9996213  0.7609042  0.7625254

 Al 
  0.2459928  0.5017969  0.7517413

 Al 
  0.2324910  0.7430647  0.4945745

 Al 
  0.4881293  0.4873447  0.9941575

 Al 
  0.4876949  0.7578412  0.2270024

 Al 
  0.7673407  0.5058636  0.2597211

 Al 
  0.7484877  0.7561742  0.9948555

 Al 
  0.5041161  0.0047733  0.4844141

 Al 
  0.4798896  0.2443864  0.7411886

 Al 
  0.7466487  0.0095787  0.7460361

 Al 
  0.7508168  0.2539911  0.5106567

 Al 
  0.5174967  0.4968863  0.5234592

 Al 
  0.4908680  0.7540765  0.7383075

 Al 
  0.7504715  0.5065875  0.7649584

 Al 
  0.7446933  0.7716202  0.5021608

