32 
charge = 0 
 Al 
  0.0031781  0.9960571  0.0053809

 Al 
  0.9933085  0.2284565  0.2428605

 Al 
  0.2602594  0.0051978  0.2411131

 Al 
  0.2490854  0.2490793  0.0156576

 Al 
  0.4911242  0.9955448  0.9880699

 Al 
  0.5019875  0.2419051  0.2540976

 Al 
  0.7611455  0.9861975  0.2339055

 Al 
  0.7609005  0.2507302  0.0050777

 Al 
  0.9944260  0.5203195  0.0207725

 Al 
  0.0223900  0.7442577  0.2513836

 Al 
  0.2610094  0.5026150  0.2539330

 Al 
  0.2695708  0.7397542  0.9880922

 Al 
  0.9991547  0.9979568  0.4838993

 Al 
  0.0113373  0.2483652  0.7645129

 Al 
  0.2480484  0.0087273  0.7432800

 Al 
  0.2478429  0.2554020  0.4881380

 Al 
  0.9850515  0.4778922  0.5198307

 Al 
  0.9965658  0.7628261  0.7600527

 Al 
  0.2469222  0.5007920  0.7526669

 Al 
  0.2333721  0.7442144  0.5011089

 Al 
  0.4968640  0.4841245  0.9937231

 Al 
  0.4880093  0.7595230  0.2302089

 Al 
  0.7662133  0.5049131  0.2568920

 Al 
  0.7485904  0.7581617  0.9922318

 Al 
  0.5075900  0.0053091  0.4854970

 Al 
  0.4764158  0.2439124  0.7421155

 Al 
  0.7403359  0.0035159  0.7464977

 Al 
  0.7490186  0.2573425  0.5129412

 Al 
  0.5163618  0.4993169  0.5207923

 Al 
  0.4857086  0.7535246  0.7413074

 Al 
  0.7471524  0.5075132  0.7624722

 Al 
  0.7410598  0.7665561  0.5014900

