32 
charge = 0 
 Al 
  0.0013947  0.9945671  0.0032746

 Al 
  0.9913791  0.2282548  0.2432268

 Al 
  0.2630847  0.0051074  0.2422046

 Al 
  0.2468318  0.2528204  0.0128397

 Al 
  0.4911613  0.9967799  0.9877283

 Al 
  0.4993255  0.2448616  0.2547337

 Al 
  0.7582620  0.9887419  0.2340713

 Al 
  0.7611331  0.2480075  0.0072608

 Al 
  0.9959235  0.5210720  0.0235842

 Al 
  0.0224754  0.7464086  0.2523910

 Al 
  0.2604735  0.5058858  0.2535332

 Al 
  0.2650327  0.7398904  0.9871157

 Al 
  0.0016410  0.9916898  0.4836345

 Al 
  0.0119685  0.2443641  0.7711821

 Al 
  0.2473615  0.0038897  0.7419435

 Al 
  0.2462861  0.2556086  0.4875093

 Al 
  0.9848955  0.4773439  0.5173271

 Al 
  0.9989617  0.7614041  0.7621318

 Al 
  0.2462564  0.5016088  0.7519838

 Al 
  0.2324761  0.7433110  0.4958554

 Al 
  0.4898507  0.4866009  0.9939953

 Al 
  0.4875835  0.7583300  0.2274937

 Al 
  0.7673061  0.5056297  0.2591159

 Al 
  0.7485780  0.7566544  0.9942391

 Al 
  0.5049515  0.0049527  0.4845614

 Al 
  0.4790270  0.2442911  0.7413012

 Al 
  0.7452601  0.0082508  0.7460831

 Al 
  0.7504641  0.2548673  0.5111678

 Al 
  0.5174175  0.4973331  0.5231016

 Al 
  0.4896824  0.7539255  0.7389548

 Al 
  0.7497141  0.5068400  0.7643830

 Al 
  0.7438394  0.7707057  0.5020704

