32 
charge = 0 
 Al 
  0.0018291  0.9950077  0.0039095

 Al 
  0.9918383  0.2281583  0.2430498

 Al 
  0.2623880  0.0051767  0.2418903

 Al 
  0.2474543  0.2517858  0.0136800

 Al 
  0.4910871  0.9963269  0.9878249

 Al 
  0.4999752  0.2439731  0.2546384

 Al 
  0.7591567  0.9880142  0.2339575

 Al 
  0.7611764  0.2487488  0.0067125

 Al 
  0.9954334  0.5210188  0.0229716

 Al 
  0.0225670  0.7457341  0.2521298

 Al 
  0.2606307  0.5050282  0.2536322

 Al 
  0.2664509  0.7397852  0.9873558

 Al 
  0.0009641  0.9933679  0.4835936

 Al 
  0.0118645  0.2454482  0.7693976

 Al 
  0.2475719  0.0052881  0.7423246

 Al 
  0.2467316  0.2555851  0.4876244

 Al 
  0.9847953  0.4773514  0.5180511

 Al 
  0.9982922  0.7618583  0.7616504

 Al 
  0.2464866  0.5014009  0.7522016

 Al 
  0.2325863  0.7435597  0.4972316

 Al 
  0.4916922  0.4858769  0.9938679

 Al 
  0.4875736  0.7587533  0.2281050

 Al 
  0.7671514  0.5054106  0.2584996

 Al 
  0.7486300  0.7571123  0.9936426

 Al 
  0.5057485  0.0050975  0.4847582

 Al 
  0.4782152  0.2441872  0.7414658

 Al 
  0.7438691  0.0069143  0.7461636

 Al 
  0.7500866  0.2556656  0.5116727

 Al 
  0.5172454  0.4978306  0.5226140

 Al 
  0.4885216  0.7537931  0.7396119

 Al 
  0.7489716  0.5070628  0.7638236

 Al 
  0.7430127  0.7696772  0.5019492

