32 
charge = 0 
 Al 
  0.0011980  0.9943419  0.0029503

 Al 
  0.9911787  0.2283451  0.2433382

 Al 
  0.2634003  0.0050616  0.2423605

 Al 
  0.2465249  0.2533253  0.0124115

 Al 
  0.4912158  0.9970360  0.9876788

 Al 
  0.4990298  0.2453220  0.2547572

 Al 
  0.7577929  0.9891070  0.2341505

 Al 
  0.7610762  0.2476486  0.0075145

 Al 
  0.9961871  0.5210522  0.0238392

 Al 
  0.0223937  0.7467650  0.2525110

 Al 
  0.2603918  0.5062930  0.2534887

 Al 
  0.2642864  0.7399671  0.9870056

 Al 
  0.0019739  0.9908816  0.4836889

 Al 
  0.0119982  0.2438382  0.7720398

 Al 
  0.2472551  0.0031855  0.7417529

 Al 
  0.2460621  0.2556099  0.4874709

 Al 
  0.9849884  0.4773811  0.5169633

 Al 
  0.9992921  0.7611603  0.7623397

 Al 
  0.2461289  0.5017041  0.7518662

 Al 
  0.2324675  0.7431885  0.4952044

 Al 
  0.4889758  0.4869697  0.9940721

 Al 
  0.4876269  0.7580937  0.2272338

 Al 
  0.7673383  0.5057448  0.2594203

 Al 
  0.7485372  0.7564180  0.9945436

 Al 
  0.5045394  0.0048673  0.4844810

 Al 
  0.4794515  0.2443406  0.7412381

 Al 
  0.7459544  0.0089154  0.7460559

 Al 
  0.7506435  0.2544391  0.5109141

 Al 
  0.5174682  0.4971041  0.5232959

 Al 
  0.4902715  0.7539986  0.7386305

 Al 
  0.7500916  0.5067175  0.7646688

 Al 
  0.7442627  0.7711772  0.5021199

