32 
charge = 0 
 Al 
  0.0025927  0.9956438  0.0048166

 Al 
  0.9926662  0.2282387  0.2428939

 Al 
  0.2611777  0.0052213  0.2414187

 Al 
  0.2484196  0.2501807  0.0148916

 Al 
  0.4910697  0.9957972  0.9879697

 Al 
  0.5011126  0.2427083  0.2543674

 Al 
  0.7603906  0.9869252  0.2338857

 Al 
  0.7610737  0.2499171  0.0057807

 Al 
  0.9947899  0.5206982  0.0217724

 Al 
  0.0225274  0.7448134  0.2516942

 Al 
  0.2608584  0.5036261  0.2538043

 Al 
  0.2683988  0.7397307  0.9877729

 Al 
  0.9999010  0.9960534  0.4837025

 Al 
  0.0115960  0.2471635  0.7665388

 Al 
  0.2478702  0.0073610  0.7428964

 Al 
  0.2473962  0.2554960  0.4878917

 Al 
  0.9848609  0.4775816  0.5191253

 Al 
  0.9972650  0.7624647  0.7607618

 Al 
  0.2467712  0.5010519  0.7524900

 Al 
  0.2329724  0.7439446  0.4994815

 Al 
  0.4946946  0.4848163  0.9937491

 Al 
  0.4877543  0.7592669  0.2292634

 Al 
  0.7666836  0.5051049  0.2575467

 Al 
  0.7486362  0.7577583  0.9927838

 Al 
  0.5068784  0.0052510  0.4851579

 Al 
  0.4770940  0.2440213  0.7418148

 Al 
  0.7417628  0.0048859  0.7463430

 Al 
  0.7494691  0.2567262  0.5124288

 Al 
  0.5167974  0.4986795  0.5216289

 Al 
  0.4868200  0.7536223  0.7406205

 Al 
  0.7478751  0.5073511  0.7630080

 Al 
  0.7418222  0.7679026  0.5017016

