32 
charge = 0 
 Al 
  0.0052819  0.9972279  0.0067484

 Al 
  0.9955844  0.2300072  0.2430783

 Al 
  0.2570343  0.0047869  0.2403458

 Al 
  0.2511992  0.2457366  0.0176402

 Al 
  0.4916304  0.9952923  0.9884350

 Al 
  0.5052052  0.2396948  0.2528674

 Al 
  0.7630588  0.9840478  0.2342953

 Al 
  0.7599512  0.2532486  0.0025618

 Al 
  0.9937033  0.5183592  0.0167690

 Al 
  0.0214952  0.7428704  0.2504529

 Al 
  0.2614784  0.4992587  0.2543661

 Al 
  0.2723900  0.7400611  0.9893013

 Al 
  0.9967167  0.0041223  0.4851554

 Al 
  0.0101554  0.2521521  0.7579798

 Al 
  0.2483961  0.0126689  0.7444471

 Al 
  0.2492327  0.2549428  0.4891936

 Al 
  0.9863249  0.4796792  0.5217749

 Al 
  0.9944273  0.7637320  0.7573783

 Al 
  0.2472019  0.4998787  0.7531793

 Al 
  0.2351790  0.7451277  0.5065034

 Al 
  0.5040629  0.4821531  0.9939471

 Al 
  0.4894238  0.7598510  0.2339154

 Al 
  0.7640488  0.5043587  0.2548550

 Al 
  0.7481993  0.7592050  0.9907047

 Al 
  0.5094834  0.0052671  0.4868818

 Al 
  0.4748218  0.2436773  0.7433246

 Al 
  0.7359797  0.9993886  0.7470954

 Al 
  0.7474667  0.2587347  0.5145228

 Al 
  0.5143235  0.5015457  0.5174026

 Al 
  0.4825405  0.7532993  0.7433828

 Al 
  0.7450374  0.5078734  0.7608658

 Al 
  0.7389647  0.7617469  0.5006287

