32 
charge = 0 
 Al 
  0.0106492  0.9991090  0.0064588

 Al 
  0.0009146  0.2385575  0.2448654

 Al 
  0.2492983  0.0013056  0.2409633

 Al 
  0.2559675  0.2402765  0.0188072

 Al 
  0.4944990  0.9972551  0.9900772

 Al 
  0.5144894  0.2362853  0.2486770

 Al 
  0.7648619  0.9805331  0.2368856

 Al 
  0.7569502  0.2573722  0.9955225

 Al 
  0.9944557  0.5104710  0.0039033

 Al 
  0.0177838  0.7412381  0.2493750

 Al 
  0.2625278  0.4916031  0.2551235

 Al 
  0.2735966  0.7412900  0.9936191

 Al 
  0.9908779  0.0174942  0.4915611

 Al 
  0.0056062  0.2592656  0.7445089

 Al 
  0.2472464  0.0186587  0.7468442

 Al 
  0.2526286  0.2530506  0.4926674

 Al 
  0.9919596  0.4884288  0.5232167

 Al 
  0.9901292  0.7649795  0.7496312

 Al 
  0.2472650  0.4974321  0.7548203

 Al 
  0.2409485  0.7480038  0.5183073

 Al 
  0.5199718  0.4794466  0.9963405

 Al 
  0.4951624  0.7582286  0.2455225

 Al 
  0.7565009  0.5029157  0.2506807

 Al 
  0.7463269  0.7600354  0.9885860

 Al 
  0.5115526  0.0040629  0.4913878

 Al 
  0.4750285  0.2445708  0.7470150

 Al 
  0.7276051  0.9918209  0.7484134

 Al 
  0.7433060  0.2593510  0.5176476

 Al 
  0.5062138  0.5068289  0.5064366

 Al 
  0.4780258  0.7530258  0.7472439

 Al 
  0.7412331  0.5081073  0.7568932

 Al 
  0.7364202  0.7489963  0.4979989

