32 
charge = 0 
 Al 
  0.0076976  0.9982229  0.0073165

 Al 
  0.9980768  0.2329674  0.2437033

 Al 
  0.2534689  0.0037189  0.2400797

 Al 
  0.2533686  0.2427590  0.0188382

 Al 
  0.4926353  0.9957762  0.9889746

 Al 
  0.5091146  0.2378855  0.2511472

 Al 
  0.7643248  0.9821482  0.2351678

 Al 
  0.7586122  0.2555468  0.9995792

 Al 
  0.9936142  0.5153161  0.0115155

 Al 
  0.0200423  0.7419237  0.2497302

 Al 
  0.2619635  0.4957205  0.2547906

 Al 
  0.2738887  0.7405821  0.9909225

 Al 
  0.9941129  0.0104289  0.4874251

 Al 
  0.0084142  0.2557844  0.7514343

 Al 
  0.2482885  0.0159967  0.7455757

 Al 
  0.2506943  0.2542387  0.4906230

 Al 
  0.9884845  0.4827731  0.5231028

 Al 
  0.9923754  0.7644028  0.7540963

 Al 
  0.2472798  0.4988268  0.7537721

 Al 
  0.2376157  0.7462378  0.5121145

 Al 
  0.5115960  0.4805356  0.9946711

 Al 
  0.4916601  0.7595070  0.2386973

 Al 
  0.7609883  0.5037869  0.2528637

 Al 
  0.7474877  0.7598906  0.9894820

 Al 
  0.5108472  0.0049069  0.4887159

 Al 
  0.4741486  0.2437491  0.7448740

 Al 
  0.7318375  0.9955720  0.7477612

 Al 
  0.7456945  0.2594092  0.5160636

 Al 
  0.5112494  0.5040072  0.5129301

 Al 
  0.4799255  0.7531545  0.7453047

 Al 
  0.7431278  0.5080565  0.7592198

 Al 
  0.7373632  0.7561668  0.4995075

