32 
charge = 0 
 Al 
  0.0080998  0.9983627  0.0073115

 Al 
  0.9984766  0.2335825  0.2438357

 Al 
  0.2528897  0.0034726  0.2401069

 Al 
  0.2537201  0.2423407  0.0189384

 Al 
  0.4928432  0.9959185  0.9890872

 Al 
  0.5097965  0.2376330  0.2508366

 Al 
  0.7644622  0.9818796  0.2353547

 Al 
  0.7583820  0.2558685  0.9990632

 Al 
  0.9936637  0.5147369  0.0105700

 Al 
  0.0197688  0.7418061  0.2496448

 Al 
  0.2620415  0.4951512  0.2548512

 Al 
  0.2739926  0.7406750  0.9912294

 Al 
  0.9936835  0.0114252  0.4878867

 Al 
  0.0080838  0.2563239  0.7504232

 Al 
  0.2482142  0.0164522  0.7457514

 Al 
  0.2509393  0.2541025  0.4908804

 Al 
  0.9889003  0.4834006  0.5232303

 Al 
  0.9920586  0.7644931  0.7535258

 Al 
  0.2472811  0.4986473  0.7538859

 Al 
  0.2380464  0.7464432  0.5129994

 Al 
  0.5127902  0.4803240  0.9948394

 Al 
  0.4920833  0.7593919  0.2395513

 Al 
  0.7604302  0.5036867  0.2525543

 Al 
  0.7473491  0.7599587  0.9893198

 Al 
  0.5110069  0.0048203  0.4890476

 Al 
  0.4741461  0.2438048  0.7451463

 Al 
  0.7312113  0.9950052  0.7478640

 Al 
  0.7453901  0.2594550  0.5162987

 Al 
  0.5106604  0.5044057  0.5121244

 Al 
  0.4795777  0.7531360  0.7455906

 Al 
  0.7428444  0.5080726  0.7589389

 Al 
  0.7371652  0.7552225  0.4993107

