32 
charge = 0 
 Al 
  0.0127358  0.9995681  0.0039850

 Al 
  0.0028179  0.2451636  0.2461029

 Al 
  0.2463999  0.9981226  0.2433196

 Al 
  0.2580244  0.2397406  0.0171390

 Al 
  0.4966561  0.9991857  0.9917108

 Al 
  0.5193740  0.2354933  0.2464569

 Al 
  0.7643433  0.9802176  0.2389882

 Al 
  0.7559626  0.2572199  0.9917653

 Al 
  0.9961413  0.5056012  0.9967217

 Al 
  0.0155265  0.7408755  0.2496770

 Al 
  0.2629276  0.4886194  0.2549998

 Al 
  0.2711747  0.7418469  0.9968182

 Al 
  0.9881825  0.0223108  0.4963059

 Al 
  0.0026212  0.2607866  0.7404052

 Al 
  0.2453158  0.0192156  0.7478244

 Al 
  0.2544342  0.2516979  0.4945436

 Al 
  0.9954482  0.4951525  0.5213022

 Al 
  0.9884931  0.7653099  0.7456846

 Al 
  0.2472873  0.4961512  0.7561606

 Al 
  0.2437008  0.7500792  0.5221635

 Al 
  0.5251695  0.4798624  0.9986572

 Al 
  0.4985174  0.7563536  0.2517809

 Al 
  0.7523538  0.5018489  0.2491362

 Al 
  0.7451896  0.7592570  0.9885810

 Al 
  0.5110304  0.0029516  0.4939211

 Al 
  0.4778427  0.2462217  0.7489431

 Al 
  0.7252413  0.9898656  0.7485768

 Al 
  0.7410487  0.2586778  0.5184471

 Al 
  0.5008539  0.5085615  0.5003304

 Al 
  0.4781855  0.7528711  0.7485001

 Al 
  0.7401106  0.5080429  0.7542189

 Al 
  0.7368917  0.7431303  0.4968343

