32 
charge = 0 
 Al 
  0.0112593  0.9992537  0.0059750

 Al 
  0.0014752  0.2401354  0.2451735

 Al 
  0.2484555  0.0005693  0.2414187

 Al 
  0.2565319  0.2399696  0.0185251

 Al 
  0.4950163  0.9977105  0.9904312

 Al 
  0.5157628  0.2360230  0.2480917

 Al 
  0.7648149  0.9803314  0.2373793

 Al 
  0.7566321  0.2575281  0.9945572

 Al 
  0.9948084  0.5092409  0.0020531

 Al 
  0.0172170  0.7411316  0.2493961

 Al 
  0.2626442  0.4907529  0.2551408

 Al 
  0.2731635  0.7414435  0.9943703

 Al 
  0.9901564  0.0189025  0.4927070

 Al 
  0.0048698  0.2598188  0.7432293

 Al 
  0.2468380  0.0189793  0.7471115

 Al 
  0.2530927  0.2527264  0.4931550

 Al 
  0.9928395  0.4900240  0.5229209

 Al 
  0.9896713  0.7650809  0.7485892

 Al 
  0.2472625  0.4971041  0.7551297

 Al 
  0.2416997  0.7484902  0.5194916

 Al 
  0.5215744  0.4794057  0.9968615

 Al 
  0.4960299  0.7578065  0.2471573

 Al 
  0.7554193  0.5026694  0.2502413

 Al 
  0.7460348  0.7599277  0.9885043

 Al 
  0.5115304  0.0038080  0.4920388

 Al 
  0.4755581  0.2449087  0.7475174

 Al 
  0.7268440  0.9911725  0.7485025

 Al 
  0.7427330  0.2592198  0.5179224

 Al 
  0.5048896  0.5073709  0.5048587

 Al 
  0.4778773  0.7529937  0.7476090

 Al 
  0.7408903  0.5080986  0.7562683

 Al 
  0.7364116  0.7473999  0.4976684

