32 
charge = 0 
 Al 
  0.0131107  0.9996436  0.0031607

 Al 
  0.0031706  0.2469383  0.2464160

 Al 
  0.2458554  0.9972378  0.2441278

 Al 
  0.2584637  0.2398755  0.0165190

 Al 
  0.4972340  0.9997017  0.9922194

 Al 
  0.5205188  0.2353869  0.2459507

 Al 
  0.7640921  0.9803388  0.2395686

 Al 
  0.7558351  0.2568536  0.9908470

 Al 
  0.9966722  0.5044032  0.9950040

 Al 
  0.0149572  0.7407938  0.2498305

 Al 
  0.2629981  0.4880315  0.2548809

 Al 
  0.2703035  0.7419657  0.9977068

 Al 
  0.9875773  0.0232043  0.4975546

 Al 
  0.0018514  0.2609079  0.7397604

 Al 
  0.2447230  0.0190758  0.7480409

 Al 
  0.2548698  0.2513353  0.4949866

 Al 
  0.9963183  0.4969779  0.5205250

 Al 
  0.9881503  0.7653668  0.7447824

 Al 
  0.2473108  0.4958381  0.7565356

 Al 
  0.2442874  0.7506596  0.5227786

 Al 
  0.5259839  0.4802139  0.9993317

 Al 
  0.4993070  0.7558079  0.2532362

 Al 
  0.7513885  0.5015420  0.2488280

 Al 
  0.7449173  0.7589154  0.9887097

 Al 
  0.5107272  0.0026323  0.4945300

 Al 
  0.4788352  0.2467551  0.7493961

 Al 
  0.7249158  0.9896255  0.7485422

 Al 
  0.7404869  0.2584662  0.5185201

 Al 
  0.4994827  0.5088152  0.4988850

 Al 
  0.4785320  0.7528142  0.7487538

 Al 
  0.7399163  0.5080145  0.7534590

 Al 
  0.7372110  0.7418606  0.4966103

