32 
charge = 0 
 Al 
  0.0125254  0.9995248  0.0043686

 Al 
  0.0026261  0.2442948  0.2459470

 Al 
  0.2466969  0.9985533  0.2429484

 Al 
  0.2577954  0.2397121  0.0174212

 Al 
  0.4963739  0.9989307  0.9914732

 Al 
  0.5187924  0.2355576  0.2467167

 Al 
  0.7644535  0.9801866  0.2387072

 Al 
  0.7560443  0.2573536  0.9922244

 Al 
  0.9958913  0.5062027  0.9975905

 Al 
  0.0158086  0.7409151  0.2496102

 Al 
  0.2628880  0.4889350  0.2550443

 Al 
  0.2715720  0.7417851  0.9963876

 Al 
  0.9884944  0.0218219  0.4956896

 Al 
  0.0030011  0.2606901  0.7407789

 Al 
  0.2455968  0.0192453  0.7477117

 Al 
  0.2542151  0.2518761  0.4943184

 Al 
  0.9950139  0.4942627  0.5216474

 Al 
  0.9886714  0.7652777  0.7461475

 Al 
  0.2472786  0.4963084  0.7559787

 Al 
  0.2433927  0.7497995  0.5218071

 Al 
  0.5246918  0.4797250  0.9983342

 Al 
  0.4981152  0.7566148  0.2510383

 Al 
  0.7528464  0.5019962  0.2493008

 Al 
  0.7453282  0.7594055  0.9885352

 Al 
  0.5111566  0.0031038  0.4936129

 Al 
  0.4773897  0.2459730  0.7487129

 Al 
  0.7254406  0.9900203  0.7485842

 Al 
  0.7413284  0.2587793  0.5183914

 Al 
  0.5015333  0.5084080  0.5010643

 Al 
  0.4780568  0.7528959  0.7483677

 Al 
  0.7402183  0.5080553  0.7545827

 Al 
  0.7367618  0.7437911  0.4969568

