32 
charge = 0 
 Al 
  0.0137963  0.9998032  0.0007958

 Al 
  0.0038835  0.2516014  0.2472180

 Al 
  0.2447527  0.9948938  0.2465385

 Al 
  0.2594513  0.2406317  0.0146664

 Al 
  0.4987550  0.0010247  0.9936934

 Al 
  0.5232773  0.2352495  0.2447750

 Al 
  0.7632803  0.9809923  0.2411254

 Al 
  0.7557138  0.2553487  0.9885167

 Al 
  0.9981746  0.5014195  0.9907888

 Al 
  0.0134832  0.7405636  0.2503218

 Al 
  0.2631194  0.4867977  0.2544057

 Al 
  0.2677182  0.7422355  0.0001077

 Al 
  0.9861480  0.0249728  0.5007859

 Al 
  0.9998589  0.2608633  0.7386924

 Al 
  0.2430969  0.0183035  0.7485570

 Al 
  0.2559514  0.2503824  0.4960732

 Al 
  0.9985459  0.5017994  0.5180622

 Al 
  0.9873682  0.7654708  0.7426501

 Al 
  0.2474271  0.4950498  0.7575306

 Al 
  0.2456005  0.7522474  0.5237562

 Al 
  0.5272301  0.4815504  0.0011720

 Al 
  0.5011942  0.7543104  0.2567014

 Al 
  0.7490953  0.5006856  0.2481647

 Al 
  0.7442528  0.7577892  0.9892580

 Al 
  0.5096691  0.0017573  0.4960373

 Al 
  0.4818326  0.2482971  0.7505049

 Al 
  0.7245273  0.9894176  0.7483392

 Al 
  0.7390389  0.2579154  0.5184756

 Al 
  0.4959779  0.5091357  0.4954074

 Al 
  0.4799267  0.7526088  0.7493565

 Al 
  0.7395228  0.5079142  0.7513527

 Al 
  0.7383310  0.7389696  0.4961673

