32 
charge = 0 
 Al 
  0.0140723  0.9999196  0.9986399

 Al 
  0.0043030  0.2555517  0.2478961

 Al 
  0.2441067  0.9929211  0.2488614

 Al 
  0.2601381  0.2416390  0.0129115

 Al 
  0.5000557  0.0020841  0.9950943

 Al 
  0.5253737  0.2352557  0.2439409

 Al 
  0.7624623  0.9818784  0.2424818

 Al 
  0.7558066  0.2535419  0.9865836

 Al 
  0.9995297  0.4990545  0.9874833

 Al 
  0.0122222  0.7403284  0.2507920

 Al 
  0.2631503  0.4860415  0.2538142

 Al 
  0.2652616  0.7424175  0.0022090

 Al 
  0.9850812  0.0259430  0.5034528

 Al 
  0.9981795  0.2605416  0.7383211

 Al 
  0.2417009  0.0172826  0.7489493

 Al 
  0.2568177  0.2495755  0.4969296

 Al 
  0.0004133  0.5058846  0.5155685

 Al 
  0.9868014  0.7655091  0.7410834

 Al 
  0.2476053  0.4944161  0.7583610

 Al 
  0.2465138  0.7536607  0.5239852

 Al 
  0.5274306  0.4831048  0.0027759

 Al 
  0.5026063  0.7529850  0.2592879

 Al 
  0.7474098  0.4998985  0.2477439

 Al 
  0.7437454  0.7565974  0.9899287

 Al 
  0.5085194  0.0009777  0.4972464

 Al 
  0.4847594  0.2497314  0.7513712

 Al 
  0.7246399  0.9896317  0.7480768

 Al 
  0.7378187  0.2574835  0.5181823

 Al 
  0.4930956  0.5090602  0.4927949

 Al 
  0.4815739  0.7523551  0.7498503

 Al 
  0.7392679  0.5077991  0.7494431

 Al 
  0.7395364  0.7369301  0.4959396

