32 
charge = 0 
 Al 
  0.0135662  0.9997438  0.0017908

 Al 
  0.0036248  0.2496968  0.2468925

 Al 
  0.2451512  0.9958517  0.2455076

 Al 
  0.2590738  0.2402591  0.0154559

 Al 
  0.4981325  0.0004913  0.9930672

 Al 
  0.5221907  0.2352841  0.2452292

 Al 
  0.7636342  0.9806705  0.2404844

 Al 
  0.7557287  0.2560517  0.9894584

 Al 
  0.9975447  0.5026113  0.9924645

 Al 
  0.0140835  0.7406626  0.2501089

 Al 
  0.2630810  0.4872519  0.2546285

 Al 
  0.2688209  0.7421328  0.9991164

 Al 
  0.9867061  0.0243416  0.4994765

 Al 
  0.0006695  0.2609351  0.7390327

 Al 
  0.2437689  0.0186835  0.7483540

 Al 
  0.2555183  0.2507722  0.4956413

 Al 
  0.9976437  0.4998280  0.5191352

 Al 
  0.9876702  0.7654361  0.7434818

 Al 
  0.2473689  0.4953653  0.7571246

 Al 
  0.2450993  0.7515878  0.5234592

 Al 
  0.5268662  0.4809366  0.0004109

 Al 
  0.5004542  0.7549317  0.2553438

 Al 
  0.7499913  0.5010445  0.2484122

 Al 
  0.7445151  0.7582880  0.9890005

 Al 
  0.5101431  0.0021212  0.4954359

 Al 
  0.4805443  0.2476449  0.7500656

 Al 
  0.7246114  0.9894349  0.7484394

 Al 
  0.7396280  0.2581370  0.5185337

 Al 
  0.4973937  0.5090614  0.4967737

 Al 
  0.4792795  0.7527028  0.7491164

 Al 
  0.7396676  0.5079588  0.7522338

 Al 
  0.7378286  0.7400797  0.4963244

