32 
charge = 0 
 Al 
  0.0134288  0.9997116  0.0022647

 Al 
  0.0034825  0.2487637  0.2467328

 Al 
  0.2453715  0.9963207  0.2450250

 Al 
  0.2588770  0.2401082  0.0158272

 Al 
  0.4978281  0.0002265  0.9927726

 Al 
  0.5216388  0.2353114  0.2454643

 Al 
  0.7637976  0.9805406  0.2401725

 Al 
  0.7557534  0.2563536  0.9899238

 Al 
  0.9972439  0.5032078  0.9933073

 Al 
  0.0143780  0.7407084  0.2500111

 Al 
  0.2630575  0.4874981  0.2547238

 Al 
  0.2693382  0.7420784  0.9986350

 Al 
  0.9869920  0.0239877  0.4988293

 Al 
  0.0010680  0.2609450  0.7392456

 Al 
  0.2440944  0.0188382  0.7482513

 Al 
  0.2553030  0.2509628  0.4954235

 Al 
  0.9971982  0.4988627  0.5196277

 Al 
  0.9878261  0.7654151  0.7439087

 Al 
  0.2473467  0.4955237  0.7569254

 Al 
  0.2448369  0.7512710  0.5232637

 Al 
  0.5266163  0.4806693  0.0000421

 Al 
  0.5000767  0.7552312  0.2546508

 Al 
  0.7504505  0.5012153  0.2485446

 Al 
  0.7446475  0.7585132  0.9888904

 Al 
  0.5103547  0.0022969  0.4951339

 Al 
  0.4799453  0.2473368  0.7498441

 Al 
  0.7246894  0.9894770  0.7484803

 Al 
  0.7399163  0.2582471  0.5185424

 Al 
  0.4980954  0.5089971  0.4974704

 Al 
  0.4789998  0.7527437  0.7489976

 Al 
  0.7397456  0.5079786  0.7526546

 Al 
  0.7376046  0.7406576  0.4964123

