32 
charge = 0 
 Al 
  0.0141070  0.0000074  0.9969209

 Al 
  0.0045357  0.2585973  0.2484357

 Al 
  0.2437491  0.9914274  0.2508168

 Al 
  0.2605923  0.2426056  0.0114697

 Al 
  0.5010680  0.0028501  0.9962663

 Al 
  0.5268539  0.2353262  0.2433976

 Al 
  0.7617705  0.9827471  0.2435548

 Al 
  0.7559762  0.2518638  0.9850973

 Al 
  0.0006027  0.4973182  0.9850614

 Al 
  0.0112148  0.7401156  0.2511695

 Al 
  0.2631293  0.4856121  0.2532350

 Al 
  0.2632333  0.7425276  0.0038624

 Al 
  0.9843300  0.0264158  0.5054527

 Al 
  0.9968801  0.2601839  0.7382815

 Al 
  0.2406502  0.0163061  0.7492302

 Al 
  0.2574662  0.2489530  0.4975608

 Al 
  0.0018724  0.5090194  0.5134201

 Al 
  0.9864066  0.7655042  0.7400141

 Al 
  0.2478058  0.4939508  0.7589785

 Al 
  0.2471239  0.7547968  0.5238441

 Al 
  0.5271237  0.4845428  0.0040171

 Al 
  0.5035902  0.7519355  0.2610836

 Al 
  0.7462626  0.4992500  0.2474989

 Al 
  0.7433927  0.7555406  0.9905636

 Al 
  0.5074897  0.0003564  0.4981585

 Al 
  0.4872321  0.2509059  0.7520036

 Al 
  0.7249653  0.9899993  0.7478343

 Al 
  0.7368682  0.2571853  0.5177949

 Al 
  0.4909175  0.5087991  0.4909856

 Al 
  0.4830998  0.7521001  0.7502488

 Al 
  0.7390958  0.5076865  0.7478974

 Al 
  0.7405958  0.7355700  0.4958455

