32 
charge = 0 
 Al 
  0.0135699  0.0002314  0.9928976

 Al 
  0.0047894  0.2656007  0.2497958

 Al 
  0.2432912  0.9881491  0.2558797

 Al 
  0.2614314  0.2453765  0.0078808

 Al 
  0.5034355  0.0043674  0.9992760

 Al 
  0.5298042  0.2357037  0.2425041

 Al 
  0.7600255  0.9853633  0.2461537

 Al 
  0.7566210  0.2471672  0.9816742

 Al 
  0.0030605  0.4936080  0.9798129

 Al 
  0.0086493  0.7395290  0.2520222

 Al 
  0.2629127  0.4850923  0.2514393

 Al 
  0.2581531  0.7426674  0.0077298

 Al 
  0.9827929  0.0266670  0.5097854

 Al 
  0.9938518  0.2591802  0.7388013

 Al 
  0.2384684  0.0134919  0.7498280

 Al 
  0.2589092  0.2475113  0.4989481

 Al 
  0.0054168  0.5161007  0.5077533

 Al 
  0.9856208  0.7653346  0.7380377

 Al 
  0.2485558  0.4929966  0.7602408

 Al 
  0.2482996  0.7575863  0.5225793

 Al 
  0.5249901  0.4886231  0.0068029

 Al 
  0.5055356  0.7494703  0.2645735

 Al 
  0.7441711  0.4975954  0.2471957

 Al 
  0.7427491  0.7526459  0.9924175

 Al 
  0.5046508  0.9988701  0.5002797

 Al 
  0.4936105  0.2538327  0.7533600

 Al 
  0.7264504  0.9914249  0.7471870

 Al 
  0.7346196  0.2566358  0.5162752

 Al 
  0.4860428  0.5074984  0.4875699

 Al 
  0.4874090  0.7512623  0.7513106

 Al 
  0.7387209  0.5073363  0.7441179

 Al 
  0.7433889  0.7330813  0.4958703

