32 
charge = 0 
 Al 
  0.0138124  0.0001634  0.9940176

 Al 
  0.0047597  0.2636516  0.2493936

 Al 
  0.2433729  0.9890340  0.2543859

 Al 
  0.2612247  0.2445312  0.0089216

 Al 
  0.5027721  0.0039874  0.9983924

 Al 
  0.5290518  0.2355651  0.2426996

 Al 
  0.7605292  0.9845441  0.2454062

 Al 
  0.7564081  0.2485867  0.9826259

 Al 
  0.0023860  0.4945993  0.9812336

 Al 
  0.0094104  0.7397035  0.2517932

 Al 
  0.2630006  0.4851703  0.2520110

 Al 
  0.2596282  0.7426439  0.0066482

 Al 
  0.9831951  0.0267165  0.5086270

 Al 
  0.9946995  0.2594735  0.7385822

 Al 
  0.2390302  0.0143570  0.7496659

 Al 
  0.2585144  0.2479147  0.4985681

 Al 
  0.0043909  0.5141540  0.5094339

 Al 
  0.9858212  0.7654114  0.7385142

 Al 
  0.2482984  0.4932417  0.7599215

 Al 
  0.2480013  0.7567831  0.5230607

 Al 
  0.5257859  0.4873756  0.0060455

 Al 
  0.5050381  0.7501609  0.2636961

 Al 
  0.7446698  0.4980818  0.2472415

 Al 
  0.7428989  0.7535196  0.9918420

 Al 
  0.5055096  0.9992909  0.4996782

 Al 
  0.4917368  0.2529825  0.7529937

 Al 
  0.7259319  0.9909497  0.7473776

 Al 
  0.7352557  0.2567682  0.5167999

 Al 
  0.4873806  0.5079662  0.4884040

 Al 
  0.4860960  0.7515358  0.7509876

 Al 
  0.7388260  0.5074489  0.7451995

 Al 
  0.7425635  0.7336840  0.4958319

