32 
charge = 0 
 Al 
  0.0128793  0.0003737  0.9908185

 Al 
  0.0047473  0.2692676  0.2506225

 Al 
  0.2432256  0.9865687  0.2588968

 Al 
  0.2617655  0.2471227  0.0058178

 Al 
  0.5046904  0.0049589  0.0010532

 Al 
  0.5310430  0.2360502  0.2422677

 Al 
  0.7590478  0.9871281  0.2476350

 Al 
  0.7570826  0.2442528  0.9799119

 Al 
  0.0042745  0.4918507  0.9772239

 Al 
  0.0070665  0.7391887  0.2524108

 Al 
  0.2626702  0.4851072  0.2501757

 Al 
  0.2552287  0.7426786  0.0097656

 Al 
  0.9820962  0.0262920  0.5118249

 Al 
  0.9922541  0.2586233  0.7393409

 Al 
  0.2375538  0.0116690  0.7501312

 Al 
  0.2596332  0.2467489  0.4996609

 Al 
  0.0074848  0.5196847  0.5043525

 Al 
  0.9852978  0.7650908  0.7373274

 Al 
  0.2491820  0.4925969  0.7607210

 Al 
  0.2488082  0.7591555  0.5213838

 Al 
  0.5230174  0.4912319  0.0081617

 Al 
  0.5063747  0.7481696  0.2659980

 Al 
  0.7434459  0.4966153  0.2472043

 Al 
  0.7425536  0.7508329  0.9936513

 Al 
  0.5028711  0.9980657  0.5014628

 Al 
  0.4973603  0.2555245  0.7540270

 Al 
  0.7276744  0.9924830  0.7468120

 Al 
  0.7333931  0.2564316  0.5150067

 Al 
  0.4835689  0.5063487  0.4863088

 Al 
  0.4901441  0.7506324  0.7519987

 Al 
  0.7385228  0.5070863  0.7420177

 Al 
  0.7450398  0.7321667  0.4960089

