32 
charge = 0 
 Al 
  0.0130773  0.0003366  0.9913135

 Al 
  0.0047708  0.2683852  0.2504133

 Al 
  0.2432305  0.9869375  0.2581432

 Al 
  0.2616913  0.2466833  0.0063289

 Al 
  0.5043884  0.0048339  0.0006101

 Al 
  0.5307683  0.2359549  0.2423073

 Al 
  0.7592867  0.9866739  0.2472675

 Al 
  0.7569638  0.2449842  0.9803314

 Al 
  0.0039911  0.4922603  0.9778377

 Al 
  0.0074687  0.7392703  0.2523241

 Al 
  0.2627395  0.4850824  0.2505049

 Al 
  0.2559539  0.7426798  0.0092755

 Al 
  0.9822558  0.0264195  0.5113546

 Al 
  0.9926390  0.2587558  0.7391961

 Al 
  0.2377543  0.0121343  0.7500582

 Al 
  0.2594624  0.2469333  0.4994876

 Al 
  0.0069662  0.5188332  0.5052015

 Al 
  0.9853671  0.7651639  0.7374734

 Al 
  0.2490112  0.4926835  0.7606232

 Al 
  0.2486919  0.7587706  0.5217081

 Al 
  0.5235545  0.4905698  0.0078449

 Al 
  0.5061841  0.7484827  0.2656849

 Al 
  0.7435919  0.4968603  0.2471907

 Al 
  0.7425882  0.7512920  0.9933333

 Al 
  0.5033216  0.9982612  0.5011695

 Al 
  0.4964284  0.2551049  0.7538686

 Al 
  0.7273477  0.9922071  0.7469049

 Al 
  0.7336926  0.2564749  0.5153507

 Al 
  0.4841592  0.5066618  0.4865700

 Al 
  0.4894510  0.7507995  0.7518217

 Al 
  0.7385711  0.5071519  0.7425313

 Al 
  0.7446302  0.7323585  0.4959680

