32 
charge = 0 
 Al 
  0.0089043  0.0008849  0.9862482

 Al 
  0.0036718  0.2783897  0.2534553

 Al 
  0.2436167  0.9836048  0.2682825

 Al 
  0.2622878  0.2524764  0.9993911

 Al 
  0.5076296  0.0049800  0.0066494

 Al 
  0.5321444  0.2379103  0.2427627

 Al 
  0.7565294  0.9936711  0.2523563

 Al 
  0.7586716  0.2352520  0.9763601

 Al 
  0.0063574  0.4885921  0.9714222

 Al 
  0.0012190  0.7386763  0.2524863

 Al 
  0.2611579  0.4867766  0.2452280

 Al 
  0.2463319  0.7426476  0.0146874

 Al 
  0.9809292  0.0226981  0.5152728

 Al 
  0.9884795  0.2573845  0.7411069

 Al 
  0.2369672  0.0052584  0.7510878

 Al 
  0.2611084  0.2447651  0.5017177

 Al 
  0.0145191  0.5276038  0.4939199

 Al 
  0.9852532  0.7630662  0.7374387

 Al 
  0.2523439  0.4924905  0.7601245

 Al 
  0.2497141  0.7633768  0.5160970

 Al 
  0.5138718  0.5001782  0.0107569

 Al 
  0.5077595  0.7450101  0.2675226

 Al 
  0.7436550  0.4936204  0.2480001

 Al 
  0.7432021  0.7446958  0.9983602

 Al 
  0.4969915  0.9960299  0.5052807

 Al 
  0.5085577  0.2607408  0.7556680

 Al 
  0.7329823  0.9963071  0.7456636

 Al 
  0.7301940  0.2561717  0.5087520

 Al 
  0.4777152  0.5008898  0.4863522

 Al 
  0.4992463  0.7478405  0.7545790

 Al 
  0.7381466  0.5060232  0.7362556

 Al 
  0.7498404  0.7319873  0.4967130

