32 
charge = 0 
 Al 
  0.0107420  0.0006856  0.9875736

 Al 
  0.0042572  0.2753997  0.2523378

 Al 
  0.2433852  0.9843263  0.2647852

 Al 
  0.2621714  0.2505383  0.0018378

 Al 
  0.5067435  0.0053463  0.0045245

 Al 
  0.5322954  0.2370390  0.2423741

 Al 
  0.7573585  0.9910128  0.2505223

 Al 
  0.7580602  0.2385563  0.9772462

 Al 
  0.0059391  0.4893842  0.9731845

 Al 
  0.0036397  0.7387035  0.2527363

 Al 
  0.2618868  0.4858274  0.2472724

 Al 
  0.2496621  0.7426353  0.0131206

 Al 
  0.9811730  0.0245087  0.5145525

 Al 
  0.9896416  0.2577484  0.7405190

 Al 
  0.2367296  0.0078103  0.7506955

 Al 
  0.2607260  0.2454421  0.5009405

 Al 
  0.0117012  0.5252698  0.4977674

 Al 
  0.9850540  0.7641231  0.7369462

 Al 
  0.2509059  0.4922739  0.7608163

 Al 
  0.2494852  0.7619586  0.5183320

 Al 
  0.5178469  0.4966635  0.0100960

 Al 
  0.5074464  0.7460287  0.2674744

 Al 
  0.7431253  0.4947230  0.2475806

 Al 
  0.7426823  0.7471004  0.9963999

 Al 
  0.4992451  0.9966994  0.5037733

 Al 
  0.5044713  0.2587892  0.7551136

 Al 
  0.7307188  0.9948121  0.7461054

 Al 
  0.7312509  0.2562287  0.5115749

 Al 
  0.4795790  0.5032845  0.4855774

 Al 
  0.4957378  0.7490545  0.7535233

 Al 
  0.7382110  0.5064873  0.7382679

 Al 
  0.7481276  0.7315380  0.4964272

