32 
charge = 0 
 Al 
  0.0100552  0.0007661  0.9869771

 Al 
  0.0040493  0.2766719  0.2527796

 Al 
  0.2434681  0.9839723  0.2662022

 Al 
  0.2622284  0.2513366  0.0008613

 Al 
  0.5071383  0.0052596  0.0053747

 Al 
  0.5323288  0.2373595  0.2425041

 Al 
  0.7570046  0.9920524  0.2512462

 Al 
  0.7583040  0.2372061  0.9768093

 Al 
  0.0061680  0.4889981  0.9724123

 Al 
  0.0027053  0.7386590  0.2526867

 Al 
  0.2616195  0.4861579  0.2464779

 Al 
  0.2483243  0.7426303  0.0137963

 Al 
  0.9810443  0.0238515  0.5149337

 Al 
  0.9891305  0.2575863  0.7407789

 Al 
  0.2367519  0.0068066  0.7508440

 Al 
  0.2609104  0.2451599  0.5012487

 Al 
  0.0128013  0.5263118  0.4962019

 Al 
  0.9850960  0.7637506  0.7370737

 Al 
  0.2514442  0.4923160  0.7606183

 Al 
  0.2495928  0.7625613  0.5174657

 Al 
  0.5163272  0.4980533  0.0104091

 Al 
  0.5076011  0.7455943  0.2675709

 Al 
  0.7432726  0.4942738  0.2477340

 Al 
  0.7428444  0.7461487  0.9971561

 Al 
  0.4983417  0.9964148  0.5043624

 Al 
  0.5061371  0.2595775  0.7553438

 Al 
  0.7315900  0.9954099  0.7459321

 Al 
  0.7307980  0.2562039  0.5105143

 Al 
  0.4787795  0.5023699  0.4857742

 Al 
  0.4971375  0.7485904  0.7539354

 Al 
  0.7381677  0.5063128  0.7374338

 Al 
  0.7488342  0.7316370  0.4965423

