32 
charge = 0 
 Al 
  0.0075999  0.0009962  0.9857260

 Al 
  0.0032139  0.2798847  0.2541520

 Al 
  0.2437887  0.9834451  0.2703059

 Al 
  0.2623150  0.2535394  0.9978912

 Al 
  0.5079860  0.0045010  0.0079328

 Al 
  0.5316469  0.2385612  0.2430857

 Al 
  0.7561197  0.9953789  0.2535184

 Al 
  0.7590379  0.2333857  0.9761905

 Al 
  0.0063512  0.4884028  0.9706326

 Al 
  0.9996027  0.7388236  0.2521063

 Al 
  0.2606146  0.4875575  0.2439062

 Al 
  0.2443320  0.7427083  0.0154312

 Al 
  0.9809168  0.0213257  0.5153247

 Al 
  0.9879709  0.2572274  0.7413346

 Al 
  0.2374140  0.0036421  0.7513737

 Al 
  0.2611999  0.2443976  0.5022090

 Al 
  0.0163420  0.5285642  0.4917182

 Al 
  0.9855354  0.7622011  0.7380241

 Al 
  0.2533587  0.4928184  0.7593733

 Al 
  0.2497933  0.7640698  0.5146466

 Al 
  0.5111900  0.5023736  0.0109599

 Al 
  0.5078350  0.7445003  0.2672516

 Al 
  0.7442255  0.4929991  0.2482996

 Al 
  0.7437157  0.7431971  0.9996646

 Al 
  0.4956512  0.9956933  0.5062633

 Al 
  0.5108943  0.2618831  0.7559725

 Al 
  0.7344847  0.9972031  0.7453777

 Al 
  0.7296928  0.2561334  0.5067620

 Al 
  0.4768081  0.4992785  0.4872717

 Al 
  0.5013799  0.7470199  0.7552584

 Al 
  0.7382011  0.5056965  0.7351604

 Al 
  0.7507834  0.7325924  0.4968764

