32 
charge = 0 
 Al 
  0.0093040  0.0008453  0.9864685

 Al 
  0.0038067  0.2778427  0.2532276

 Al 
  0.2435634  0.9837050  0.2675944

 Al 
  0.2622717  0.2521039  0.9998837

 Al 
  0.5074798  0.0050938  0.0062237

 Al 
  0.5322385  0.2377160  0.2426687

 Al 
  0.7566804  0.9931229  0.2519813

 Al 
  0.7585491  0.2358943  0.9764801

 Al 
  0.0063153  0.4887035  0.9717304

 Al 
  0.0017276  0.7386577  0.2525717

 Al 
  0.2613212  0.4865526  0.2456524

 Al 
  0.2469952  0.7426377  0.0144065

 Al 
  0.9809564  0.0231053  0.5151911

 Al 
  0.9886813  0.2574464  0.7410066

 Al 
  0.2368707  0.0057807  0.7510037

 Al 
  0.2610539  0.2448926  0.5015593

 Al 
  0.0139362  0.5272090  0.4946723

 Al 
  0.9851876  0.7633125  0.7372927

 Al 
  0.2520321  0.4924162  0.7603163

 Al 
  0.2496795  0.7631169  0.5165623

 Al 
  0.5147146  0.4994629  0.0106579

 Al 
  0.5077162  0.7451958  0.2675647

 Al 
  0.7435065  0.4938357  0.2479073

 Al 
  0.7430659  0.7451846  0.9979481

 Al 
  0.4974407  0.9961524  0.5049688

 Al 
  0.5077608  0.2603559  0.7555616

 Al 
  0.7325058  0.9960089  0.7457552

 Al 
  0.7303846  0.2561829  0.5093646

 Al 
  0.4780518  0.5013984  0.4861220

 Al 
  0.4985422  0.7480991  0.7543612

 Al 
  0.7381466  0.5061235  0.7366393

 Al 
  0.7495124  0.7318437  0.4966561

