32 
charge = 0 
 Al 
  0.0066395  0.0010643  0.9854958

 Al 
  0.0028612  0.2807522  0.2546272

 Al 
  0.2439161  0.9834637  0.2716177

 Al 
  0.2623175  0.2542015  0.9968653

 Al 
  0.5081419  0.0040617  0.0088003

 Al 
  0.5311210  0.2390599  0.2433333

 Al 
  0.7558821  0.9965732  0.2543339

 Al 
  0.7592830  0.2321989  0.9762537

 Al 
  0.0062299  0.4884003  0.9702168

 Al 
  0.9984394  0.7390080  0.2517388

 Al 
  0.2602037  0.4881751  0.2429855

 Al 
  0.2429818  0.7427850  0.0158408

 Al 
  0.9809700  0.0202799  0.5151936

 Al 
  0.9877160  0.2571457  0.7414163

 Al 
  0.2378471  0.0025172  0.7515965

 Al 
  0.2611900  0.2441661  0.5025556

 Al 
  0.0176266  0.5290134  0.4903000

 Al 
  0.9858014  0.7615081  0.7385451

 Al 
  0.2541013  0.4931352  0.7587162

 Al 
  0.2498230  0.7644510  0.5136342

 Al 
  0.5092693  0.5038859  0.0110143

 Al 
  0.5078412  0.7441983  0.2669484

 Al 
  0.7447057  0.4926056  0.2485112

 Al 
  0.7441562  0.7421638  0.0005990

 Al 
  0.4947663  0.9954977  0.5069638

 Al 
  0.5124090  0.2626281  0.7561692

 Al 
  0.7355527  0.9977959  0.7451698

 Al 
  0.7294280  0.2560962  0.5052980

 Al 
  0.4762895  0.4981350  0.4880748

 Al 
  0.5028204  0.7464309  0.7557312

 Al 
  0.7382914  0.5054564  0.7344735

 Al 
  0.7513737  0.7331456  0.4969791

