32 
charge = 0 
 Al 
  0.0033402  0.0011930  0.9854215

 Al 
  0.0016014  0.2826543  0.2560863

 Al 
  0.2443382  0.9841901  0.2752661

 Al 
  0.2622407  0.2559069  0.9936377

 Al 
  0.5081531  0.0021150  0.0114437

 Al 
  0.5284590  0.2409113  0.2441661

 Al 
  0.7553413  0.0004220  0.2570034

 Al 
  0.7600057  0.2290048  0.9774306

 Al 
  0.0052745  0.4890216  0.9695225

 Al 
  0.9945015  0.7400785  0.2500136

 Al 
  0.2587174  0.4905227  0.2400760

 Al 
  0.2388285  0.7432615  0.0166168

 Al 
  0.9814774  0.0164806  0.5139684

 Al 
  0.9873954  0.2570046  0.7412170

 Al 
  0.2398309  0.9989010  0.7524850

 Al 
  0.2607532  0.2435288  0.5037102

 Al 
  0.0218219  0.5293773  0.4863819

 Al 
  0.9870328  0.7587780  0.7407715

 Al 
  0.2566135  0.4946339  0.7559477

 Al 
  0.2498119  0.7650958  0.5104277

 Al 
  0.5029046  0.5086667  0.0107779

 Al 
  0.5076642  0.7434644  0.2655005

 Al 
  0.7465645  0.4915932  0.2491696

 Al 
  0.7459915  0.7388929  0.0037152

 Al 
  0.4922417  0.9950584  0.5093399

 Al 
  0.5167021  0.2647183  0.7567435

 Al 
  0.7390451  0.9995235  0.7444458

 Al 
  0.7290642  0.2558722  0.5002636

 Al 
  0.4751893  0.4944631  0.4913457

 Al 
  0.5072249  0.7444904  0.7572274

 Al 
  0.7389374  0.5046211  0.7326419

 Al 
  0.7529318  0.7355564  0.4972365

