32 
charge = 0 
 Al 
  0.0045047  0.0011658  0.9853398

 Al 
  0.0020519  0.2821482  0.2555987

 Al 
  0.2441921  0.9838300  0.2741127

 Al 
  0.2622816  0.2553908  0.9947379

 Al 
  0.5082310  0.0028711  0.0105589

 Al 
  0.5295381  0.2402332  0.2438803

 Al 
  0.7554935  0.9990991  0.2560764

 Al 
  0.7597693  0.2299948  0.9768625

 Al 
  0.0056940  0.4887085  0.9696587

 Al 
  0.9958863  0.7396280  0.2506955

 Al 
  0.2592545  0.4896589  0.2410611

 Al 
  0.2402282  0.7430548  0.0164398

 Al 
  0.9812460  0.0178556  0.5145166

 Al 
  0.9874239  0.2570355  0.7413668

 Al 
  0.2390562  0.0001448  0.7521472

 Al 
  0.2609735  0.2437317  0.5033055

 Al 
  0.0203728  0.5294243  0.4876182

 Al 
  0.9865477  0.7598015  0.7399188

 Al 
  0.2557373  0.4940387  0.7570021

 Al 
  0.2498317  0.7649757  0.5115180

 Al 
  0.5051161  0.5070380  0.0109252

 Al 
  0.5077546  0.7436798  0.2660673

 Al 
  0.7458839  0.4918964  0.2489505

 Al 
  0.7452923  0.7400079  0.0026286

 Al 
  0.4930511  0.9951785  0.5085021

 Al 
  0.5153223  0.2640562  0.7565541

 Al 
  0.7378385  0.9989617  0.7447057

 Al 
  0.7291025  0.2559700  0.5020395

 Al 
  0.4754752  0.4957131  0.4901218

 Al 
  0.5057497  0.7451611  0.7567200

 Al 
  0.7386491  0.5049181  0.7332112

 Al 
  0.7524528  0.7346295  0.4971598

