32 
charge = 0 
 Al 
  0.0027387  0.0011980  0.9855020

 Al 
  0.0013675  0.2828536  0.2563277

 Al 
  0.2444112  0.9844166  0.2758094

 Al 
  0.2622147  0.2561420  0.9930820

 Al 
  0.5080825  0.0016967  0.0118843

 Al 
  0.5278452  0.2412727  0.2443097

 Al 
  0.7552757  0.0010928  0.2574786

 Al 
  0.7601208  0.2285456  0.9777833

 Al 
  0.0050282  0.4892159  0.9694916

 Al 
  0.9937862  0.7403396  0.2496337

 Al 
  0.2584352  0.4909831  0.2395822

 Al 
  0.2381281  0.7433865  0.0166724

 Al 
  0.9816172  0.0157554  0.5136429

 Al 
  0.9874115  0.2569947  0.7411094

 Al 
  0.2402591  0.9982687  0.7526707

 Al 
  0.2606121  0.2434323  0.5039206

 Al 
  0.0225583  0.5292882  0.4857977

 Al 
  0.9873038  0.7582248  0.7412356

 Al 
  0.2570615  0.4949681  0.7553735

 Al 
  0.2497970  0.7651144  0.5098807

 Al 
  0.5017747  0.5094872  0.0106789

 Al 
  0.5076085  0.7433667  0.2651898

 Al 
  0.7469222  0.4914596  0.2492760

 Al 
  0.7463727  0.7383298  0.0042721

 Al 
  0.4918556  0.9950089  0.5097755

 Al 
  0.5173667  0.2650314  0.7568388

 Al 
  0.7396589  0.9997958  0.7443097

 Al 
  0.7290802  0.2558128  0.4993466

 Al 
  0.4750804  0.4938357  0.4919992

 Al 
  0.5079600  0.7441488  0.7574823

 Al 
  0.7391132  0.5044676  0.7323759

 Al 
  0.7531533  0.7360638  0.4972699

