32 
charge = 0 
 Al 
  0.0056074  0.0011212  0.9853658

 Al 
  0.0024739  0.2815096  0.2551099

 Al 
  0.2440510  0.9835899  0.2728912

 Al 
  0.2623063  0.2548203  0.9958146

 Al 
  0.5082248  0.0035209  0.0096765

 Al 
  0.5304218  0.2396156  0.2435993

 Al 
  0.7556742  0.9978132  0.2551854

 Al 
  0.7595268  0.2310641  0.9764739

 Al 
  0.0060121  0.4885018  0.9698913

 Al 
  0.9972019  0.7392740  0.2512697

 Al 
  0.2597495  0.4888756  0.2420350

 Al 
  0.2416143  0.7428976  0.0161787

 Al 
  0.9810789  0.0191228  0.5149250

 Al 
  0.9875328  0.2570826  0.7414299

 Al 
  0.2383941  0.0013514  0.7518526

 Al 
  0.2611170  0.2439434  0.5029206

 Al 
  0.0189706  0.5293018  0.4889288

 Al 
  0.9861381  0.7607099  0.7391763

 Al 
  0.2548970  0.4935399  0.7579266

 Al 
  0.2498354  0.7647567  0.5125897

 Al 
  0.5072435  0.5054416  0.0110032

 Al 
  0.5078140  0.7439248  0.2665524

 Al 
  0.7452601  0.4922368  0.2487303

 Al 
  0.7446797  0.7411007  0.0015878

 Al 
  0.4938976  0.9953257  0.5077100

 Al 
  0.5138867  0.2633558  0.7563623

 Al 
  0.7366715  0.9983837  0.7449470

 Al 
  0.7292275  0.2560430  0.5037226

 Al 
  0.4758440  0.4969432  0.4890278

 Al 
  0.5042795  0.7458109  0.7562188

 Al 
  0.7384375  0.5051965  0.7338226

 Al 
  0.7519318  0.7338238  0.4970744

