32 
charge = 0 
 Al 
  0.0039293  0.0011819  0.9853671

 Al 
  0.0018291  0.2824179  0.2558425

 Al 
  0.2442639  0.9839946  0.2746993

 Al 
  0.2622630  0.2556557  0.9941896

 Al 
  0.5082026  0.0025061  0.0110019

 Al 
  0.5290233  0.2405648  0.2440226

 Al 
  0.7554143  0.9997562  0.2565356

 Al 
  0.7598881  0.2294886  0.9771237

 Al 
  0.0054960  0.4888520  0.9695782

 Al 
  0.9952020  0.7398408  0.2503676

 Al 
  0.2589909  0.4900809  0.2405685

 Al 
  0.2395290  0.7431513  0.0165388

 Al 
  0.9813536  0.0171811  0.5142604

 Al 
  0.9874004  0.2570182  0.7413036

 Al 
  0.2394300  0.9995260  0.7523105

 Al 
  0.2608732  0.2436290  0.5035060

 Al 
  0.0210918  0.5294218  0.4869895

 Al 
  0.9867804  0.7593040  0.7403322

 Al 
  0.2561717  0.4943233  0.7564910

 Al 
  0.2498243  0.7650488  0.5109735

 Al 
  0.5040196  0.5078486  0.0108596

 Al 
  0.5077137  0.7435684  0.2657938

 Al 
  0.7462180  0.4917393  0.2490607

 Al 
  0.7456314  0.7394523  0.0031669

 Al 
  0.4926402  0.9951153  0.5089154

 Al 
  0.5160202  0.2643929  0.7566494

 Al 
  0.7384375  0.9992451  0.7445782

 Al 
  0.7290716  0.2559242  0.5011621

 Al 
  0.4753218  0.4950894  0.4907195

 Al 
  0.5064885  0.7448282  0.7569737

 Al 
  0.7387827  0.5047720  0.7329204

 Al 
  0.7526979  0.7350775  0.4971994

