32 
charge = 0 
 Al 
  0.9996399  0.0011287  0.9863039

 Al 
  0.0001683  0.2832545  0.2574625

 Al 
  0.2447812  0.9859871  0.2780753

 Al 
  0.2620254  0.2570529  0.9903086

 Al 
  0.5074155  0.9992723  0.0139981

 Al 
  0.5240669  0.2432602  0.2449730

 Al 
  0.7550344  0.0044416  0.2598918

 Al 
  0.7606381  0.2266917  0.9802139

 Al 
  0.0034751  0.4905277  0.9697069

 Al 
  0.9900921  0.7419893  0.2474123

 Al 
  0.2569229  0.4934954  0.2372259

 Al 
  0.2346988  0.7442342  0.0166031

 Al 
  0.9825652  0.0118620  0.5115687

 Al 
  0.9877914  0.2570058  0.7402195

 Al 
  0.2427318  0.9950844  0.7537696

 Al 
  0.2595998  0.2430090  0.5050171

 Al 
  0.0262351  0.5282263  0.4833300

 Al 
  0.9889090  0.7551099  0.7438654

 Al 
  0.2592879  0.4969729  0.7521484

 Al 
  0.2496770  0.7647567  0.5072113

 Al 
  0.4960720  0.5135377  0.0099389

 Al 
  0.5072348  0.7430041  0.2634560

 Al 
  0.7487884  0.4910042  0.2497599

 Al 
  0.7485298  0.7355453  0.0070850

 Al 
  0.4902084  0.9948666  0.5120563

 Al 
  0.5203332  0.2663234  0.7573053

 Al 
  0.7427466  0.0010321  0.7435771

 Al 
  0.7295542  0.2554057  0.4946475

 Al 
  0.4748911  0.4908358  0.4955225

 Al 
  0.5114932  0.7424645  0.7587001

 Al 
  0.7403421  0.5036731  0.7312472

 Al 
  0.7540505  0.7389473  0.4973962

