32 
charge = 0 
 Al 
  0.9972464  0.0009430  0.9873583

 Al 
  0.9992785  0.2828202  0.2582013

 Al 
  0.2450559  0.9876900  0.2791879

 Al 
  0.2617977  0.2574365  0.9882283

 Al 
  0.5065517  0.9970682  0.0154794

 Al 
  0.5203530  0.2449693  0.2453690

 Al 
  0.7549168  0.0069217  0.2617197

 Al 
  0.7609450  0.2258552  0.9828226

 Al 
  0.0019628  0.4918494  0.9702973

 Al 
  0.9872172  0.7436278  0.2454260

 Al 
  0.2556680  0.4956042  0.2356356

 Al 
  0.2322162  0.7451735  0.0161428

 Al 
  0.9835899  0.0086332  0.5095342

 Al 
  0.9884139  0.2570764  0.7391404

 Al 
  0.2449483  0.9926662  0.7548215

 Al 
  0.2584538  0.2427640  0.5058995

 Al 
  0.0289156  0.5267474  0.4820219

 Al 
  0.9904015  0.7523712  0.7461537

 Al 
  0.2608893  0.4988652  0.7493726

 Al 
  0.2495594  0.7639226  0.5053042

 Al 
  0.4917826  0.5164893  0.0090924

 Al 
  0.5068536  0.7428679  0.2620143

 Al 
  0.7502190  0.4909460  0.2500569

 Al 
  0.7504047  0.7335107  0.0091827

 Al 
  0.4893532  0.9948753  0.5138892

 Al 
  0.5221313  0.2669286  0.7576667

 Al 
  0.7450696  0.0018044  0.7429768

 Al 
  0.7304156  0.2549651  0.4910735

 Al 
  0.4751844  0.4888149  0.4983503

 Al 
  0.5139733  0.7412678  0.7595206

 Al 
  0.7417430  0.5030543  0.7306173

 Al 
  0.7544862  0.7414682  0.4974444

