32 
charge = 0 
 Al 
  0.9929756  0.0001658  0.9905227

 Al 
  0.9979432  0.2796371  0.2590379

 Al 
  0.2455448  0.9922850  0.2791520

 Al 
  0.2610131  0.2572917  0.9845144

 Al 
  0.5040196  0.9920598  0.0177825

 Al 
  0.5109326  0.2486869  0.2456339

 Al 
  0.7546433  0.0110762  0.2647802

 Al 
  0.7611603  0.2261744  0.9897295

 Al 
  0.9983862  0.4948196  0.9726994

 Al 
  0.9820591  0.7476523  0.2413692

 Al 
  0.2530333  0.4999146  0.2335689

 Al 
  0.2281397  0.7479432  0.0141107

 Al 
  0.9865118  0.0020086  0.5047708

 Al 
  0.9904435  0.2573437  0.7360304

 Al 
  0.2498107  0.9882654  0.7574712

 Al 
  0.2552027  0.2425734  0.5076494

 Al 
  0.0329724  0.5223034  0.4813351

 Al 
  0.9938506  0.7464655  0.7508589

 Al 
  0.2632469  0.5033563  0.7437206

 Al 
  0.2494468  0.7606740  0.5022004

 Al 
  0.4843659  0.5213368  0.0066655

 Al 
  0.5059019  0.7430325  0.2593795

 Al 
  0.7526162  0.4918284  0.2503911

 Al 
  0.7541669  0.7301953  0.0125526

 Al 
  0.4891800  0.9951723  0.5174694

 Al 
  0.5240335  0.2666811  0.7584191

 Al 
  0.7492352  0.0027041  0.7418321

 Al 
  0.7336085  0.2538204  0.4850230

 Al 
  0.4771595  0.4862445  0.5033501

 Al 
  0.5178568  0.7395896  0.7604933

 Al 
  0.7459408  0.5019467  0.7300084

 Al 
  0.7546013  0.7467514  0.4974754

