32 
charge = 0 
 Al 
  0.9946500  0.0005619  0.9890241

 Al 
  0.9983998  0.2813908  0.2588152

 Al 
  0.2453492  0.9901614  0.2795839

 Al 
  0.2614128  0.2575071  0.9859846

 Al 
  0.5052077  0.9942490  0.0169385

 Al 
  0.5152245  0.2470818  0.2456240

 Al 
  0.7547881  0.0095032  0.2636367

 Al 
  0.7611517  0.2256794  0.9865625

 Al 
  0.9999579  0.4935647  0.9714717

 Al 
  0.9840763  0.7458529  0.2430288

 Al 
  0.2541594  0.4981078  0.2342174

 Al 
  0.2296743  0.7466165  0.0151490

 Al 
  0.9851233  0.0047980  0.5068524

 Al 
  0.9894659  0.2572150  0.7374858

 Al 
  0.2477204  0.9900252  0.7562645

 Al 
  0.2567311  0.2425994  0.5069217

 Al 
  0.0315591  0.5244010  0.4812856

 Al 
  0.9923383  0.7489815  0.7489060

 Al 
  0.2624375  0.5013626  0.7460608

 Al 
  0.2494542  0.7623038  0.5033761

 Al 
  0.4872333  0.5195151  0.0078103

 Al 
  0.5063338  0.7428865  0.2604054

 Al 
  0.7517153  0.4912777  0.2502933

 Al 
  0.7526372  0.7314304  0.0113286

 Al 
  0.4889684  0.9950027  0.5159967

 Al 
  0.5235360  0.2670598  0.7580924

 Al 
  0.7475769  0.0024405  0.7422900

 Al 
  0.7320108  0.2543352  0.4873125

 Al 
  0.4760717  0.4870328  0.5014294

 Al 
  0.5164249  0.7401416  0.7602235

 Al 
  0.7439260  0.5023835  0.7301619

 Al 
  0.7546817  0.7445300  0.4974655

