32 
charge = 0 
 Al 
  0.9926130  0.0000582  0.9909138

 Al 
  0.9978640  0.2791223  0.2590577

 Al 
  0.2455893  0.9928296  0.2789503

 Al 
  0.2608980  0.2572076  0.9841889

 Al 
  0.5037127  0.9915252  0.0179521

 Al 
  0.5098423  0.2490768  0.2456128

 Al 
  0.7545951  0.0114029  0.2650104

 Al 
  0.7611393  0.2263774  0.9905326

 Al 
  0.9980050  0.4951067  0.9730434

 Al 
  0.9816284  0.7481003  0.2410029

 Al 
  0.2527598  0.5003391  0.2334699

 Al 
  0.2278229  0.7482971  0.0138248

 Al 
  0.9868806  0.0013502  0.5042671

 Al 
  0.9907010  0.2573759  0.7356567

 Al 
  0.2503106  0.9878719  0.7577781

 Al 
  0.2548042  0.2425783  0.5078189

 Al 
  0.0332248  0.5217576  0.4814229

 Al 
  0.9942193  0.7458703  0.7513056

 Al 
  0.2633892  0.5038501  0.7431860

 Al 
  0.2494592  0.7602309  0.5019504

 Al 
  0.4837520  0.5217118  0.0063660

 Al 
  0.5057930  0.7430845  0.2591617

 Al 
  0.7528006  0.4920004  0.2504072

 Al 
  0.7545023  0.7299465  0.0127865

 Al 
  0.4892988  0.9952218  0.5178060

 Al 
  0.5240817  0.2665227  0.7584983

 Al 
  0.7496065  0.0027400  0.7417331

 Al 
  0.7340453  0.2536941  0.4845527

 Al 
  0.4774813  0.4861319  0.5037486

 Al 
  0.5181489  0.7395005  0.7605205

 Al 
  0.7464754  0.5018502  0.7299923

 Al 
  0.7545542  0.7472687  0.4974791

