32 
charge = 0 
 Al 
  0.9916477  0.9997154  0.9921229

 Al 
  0.9977167  0.2774009  0.2590330

 Al 
  0.2457131  0.9944953  0.2781310

 Al 
  0.2605094  0.2568833  0.9833016

 Al 
  0.5027796  0.9899485  0.0183729

 Al 
  0.5065244  0.2502228  0.2454977

 Al 
  0.7544107  0.0122284  0.2655636

 Al 
  0.7610217  0.2271670  0.9929719

 Al 
  0.9968937  0.4958876  0.9741646

 Al 
  0.9805096  0.7494320  0.2400290

 Al 
  0.2519578  0.5015581  0.2333152

 Al 
  0.2270209  0.7494084  0.0129127

 Al 
  0.9880476  0.9994518  0.5028056

 Al 
  0.9915029  0.2574650  0.7345144

 Al 
  0.2517611  0.9867841  0.7587087

 Al 
  0.2535790  0.2426229  0.5083040

 Al 
  0.0337384  0.5200770  0.4818499

 Al 
  0.9953047  0.7441698  0.7525432

 Al 
  0.2636726  0.5053215  0.7417059

 Al 
  0.2495372  0.7588325  0.5012784

 Al 
  0.4821395  0.5226610  0.0054378

 Al 
  0.5054564  0.7432788  0.2586035

 Al 
  0.7532560  0.4925944  0.2504393

 Al 
  0.7553846  0.7293352  0.0133125

 Al 
  0.4897963  0.9953888  0.5187478

 Al 
  0.5240669  0.2659101  0.7587397

 Al 
  0.7506435  0.0027907  0.7414757

 Al 
  0.7354364  0.2533290  0.4833721

 Al 
  0.4785778  0.4859772  0.5047547

 Al 
  0.5188889  0.7393458  0.7605057

 Al 
  0.7481560  0.5015841  0.7299874

 Al 
  0.7543513  0.7487315  0.4974989

