32 
charge = 0 
 Al 
  0.9906168  0.9992364  0.9938209

 Al 
  0.9977229  0.2746832  0.2588028

 Al 
  0.2458653  0.9968046  0.2765618

 Al 
  0.2598658  0.2563066  0.9823016

 Al 
  0.5014987  0.9878892  0.0187491

 Al 
  0.5019591  0.2517252  0.2452428

 Al 
  0.7540431  0.0129956  0.2659881

 Al 
  0.7607210  0.2286236  0.9962972

 Al 
  0.9954965  0.4967291  0.9758898

 Al 
  0.9794181  0.7511980  0.2390476

 Al 
  0.2508960  0.5030877  0.2334129

 Al 
  0.2262759  0.7510160  0.0115836

 Al 
  0.9897715  0.9970596  0.5009591

 Al 
  0.9926353  0.2575541  0.7329551

 Al 
  0.2535988  0.9855218  0.7599809

 Al 
  0.2518687  0.2427355  0.5088993

 Al 
  0.0338535  0.5177207  0.4827608

 Al 
  0.9967143  0.7420920  0.7539552

 Al 
  0.2637345  0.5072769  0.7400129

 Al 
  0.2497463  0.7568252  0.5005198

 Al 
  0.4804601  0.5235397  0.0041285

 Al 
  0.5049824  0.7436204  0.2580701

 Al 
  0.7536582  0.4935548  0.2504678

 Al 
  0.7562485  0.7288340  0.0135971

 Al 
  0.4907727  0.9956574  0.5198493

 Al 
  0.5237191  0.2647715  0.7590664

 Al 
  0.7518898  0.0027387  0.7412343

 Al 
  0.7374771  0.2528810  0.4823115

 Al 
  0.4803586  0.4861727  0.5056618

 Al 
  0.5195993  0.7393990  0.7602643

 Al 
  0.7505742  0.5012685  0.7300554

 Al 
  0.7539577  0.7504851  0.4975521

