32 
charge = 0 
 Al 
  0.9900129  0.9988751  0.9951686

 Al 
  0.9978850  0.2723133  0.2584761

 Al 
  0.2459730  0.9986176  0.2750322

 Al 
  0.2592644  0.2557732  0.9816680

 Al 
  0.5005148  0.9863608  0.0189075

 Al 
  0.4983961  0.2528538  0.2449928

 Al 
  0.7536508  0.0133347  0.2660735

 Al 
  0.7603770  0.2300171  0.9988639

 Al 
  0.9945176  0.4971907  0.9773835

 Al 
  0.9788996  0.7525234  0.2385662

 Al 
  0.2500829  0.5041978  0.2336976

 Al 
  0.2259455  0.7523180  0.0105081

 Al 
  0.9912183  0.9953257  0.4996448

 Al 
  0.9935337  0.2575825  0.7317670

 Al 
  0.2549243  0.9846926  0.7609599

 Al 
  0.2505334  0.2428543  0.5093151

 Al 
  0.0334971  0.5158482  0.4836766

 Al 
  0.9977538  0.7406700  0.7548352

 Al 
  0.2635501  0.5087496  0.7389486

 Al 
  0.2499938  0.7552275  0.5000074

 Al 
  0.4795097  0.5239258  0.0030852

 Al 
  0.5045975  0.7439397  0.2578214

 Al 
  0.7538166  0.4943926  0.2504963

 Al 
  0.7566408  0.7286904  0.0134882

 Al 
  0.4917244  0.9958987  0.5205621

 Al 
  0.5232389  0.2636850  0.7593176

 Al 
  0.7527697  0.0026273  0.7411428

 Al 
  0.7391466  0.2525853  0.4818796

 Al 
  0.4819625  0.4865947  0.5060294

 Al 
  0.5199569  0.7396280  0.7599166

 Al 
  0.7525296  0.5010445  0.7301507

 Al 
  0.7535790  0.7516633  0.4976165

