32 
charge = 0 
 Al 
  0.9904002  0.9991151  0.9942627

 Al 
  0.9977625  0.2739258  0.2587087

 Al 
  0.2459012  0.9974011  0.2760853

 Al 
  0.2596790  0.2561383  0.9820801

 Al 
  0.5011732  0.9873793  0.0188134

 Al 
  0.5007859  0.2521001  0.2451648

 Al 
  0.7539243  0.0131305  0.2660388

 Al 
  0.7606183  0.2290592  0.9971449

 Al 
  0.9951636  0.4968999  0.9763663

 Al 
  0.9792164  0.7516385  0.2388619

 Al 
  0.2506287  0.5034602  0.2334884

 Al 
  0.2261447  0.7514405  0.0112321

 Al 
  0.9902381  0.9964767  0.5005148

 Al 
  0.9929298  0.2575677  0.7325603

 Al 
  0.2540456  0.9852346  0.7603052

 Al 
  0.2514281  0.2427714  0.5090404

 Al 
  0.0337780  0.5171068  0.4830454

 Al 
  0.9970620  0.7416044  0.7542659

 Al 
  0.2636936  0.5077669  0.7396379

 Al 
  0.2498193  0.7563004  0.5003453

 Al 
  0.4801148  0.5236931  0.0037869

 Al 
  0.5048574  0.7437206  0.2579724

 Al 
  0.7537251  0.4938221  0.2504765

 Al 
  0.7564044  0.7287634  0.0135921

 Al 
  0.4910697  0.9957329  0.5200980

 Al 
  0.5235780  0.2644325  0.7591493

 Al 
  0.7521855  0.0027078  0.7411947

 Al 
  0.7380204  0.2527783  0.4821333

 Al 
  0.4808660  0.4862878  0.5058141

 Al 
  0.5197342  0.7394572  0.7601653

 Al 
  0.7512128  0.5011930  0.7300839

 Al 
  0.7538389  0.7508910  0.4975707

