32 
charge = 0 
 Al 
  0.9910982  0.9994777  0.9929595

 Al 
  0.9976907  0.2761039  0.2589463

 Al 
  0.2457898  0.9956364  0.2774132

 Al 
  0.2602087  0.2566148  0.9827781

 Al 
  0.5021435  0.9889152  0.0185857

 Al 
  0.5042646  0.2509752  0.2453839

 Al 
  0.7542461  0.0126578  0.2658198

 Al 
  0.7608918  0.2278377  0.9946216

 Al 
  0.9961834  0.4963393  0.9749913

 Al 
  0.9799069  0.7503156  0.2394919

 Al 
  0.2514281  0.5023328  0.2333226

 Al 
  0.2266039  0.7501943  0.0122642

 Al 
  0.9888830  0.9982402  0.5018675

 Al 
  0.9920598  0.2575145  0.7337397

 Al 
  0.2526917  0.9861282  0.7593411

 Al 
  0.2527338  0.2426712  0.5086072

 Al 
  0.0338783  0.5189174  0.4822595

 Al 
  0.9960138  0.7431043  0.7532833

 Al 
  0.2637481  0.5062992  0.7408198

 Al 
  0.2496263  0.7578474  0.5008836

 Al 
  0.4812373  0.5231536  0.0047943

 Al 
  0.5052250  0.7434384  0.2583078

 Al 
  0.7534862  0.4930511  0.2504542

 Al 
  0.7558623  0.7290406  0.0135142

 Al 
  0.4902418  0.9955163  0.5193196

 Al 
  0.5239369  0.2653854  0.7589018

 Al 
  0.7512809  0.0027796  0.7413395

 Al 
  0.7364301  0.2530989  0.4827707

 Al 
  0.4794193  0.4860205  0.5052683

 Al 
  0.5192800  0.7393359  0.7604166

 Al 
  0.7493391  0.5014220  0.7300121

 Al 
  0.7541706  0.7496349  0.4975212

