32 
charge = 0 
 Al 
  0.9901997  0.9989939  0.9947119

 Al 
  0.9978157  0.2731362  0.2585998

 Al 
  0.2459371  0.9980050  0.2755755

 Al 
  0.2594785  0.2559601  0.9818685

 Al 
  0.5008453  0.9868695  0.0188654

 Al 
  0.4995990  0.2524764  0.2450807

 Al 
  0.7537944  0.0132432  0.2660673

 Al 
  0.7605044  0.2295233  0.9980013

 Al 
  0.9948369  0.4970546  0.9768650

 Al 
  0.9790431  0.7520803  0.2387011

 Al 
  0.2503577  0.5038290  0.2335837

 Al 
  0.2260346  0.7518749  0.0108732

 Al 
  0.9907195  0.9959000  0.5000767

 Al 
  0.9932293  0.2575776  0.7321642

 Al 
  0.2544874  0.9849587  0.7606319

 Al 
  0.2509826  0.2428122  0.5091790

 Al 
  0.0336592  0.5164831  0.4833511

 Al 
  0.9974085  0.7411304  0.7545592

 Al 
  0.2636330  0.5082583  0.7392827

 Al 
  0.2499022  0.7557670  0.5001757

 Al 
  0.4797993  0.5238218  0.0034392

 Al 
  0.5047287  0.7438270  0.2578907

 Al 
  0.7537770  0.4941018  0.2504851

 Al 
  0.7565356  0.7287152  0.0135563

 Al 
  0.4913878  0.9958133  0.5203356

 Al 
  0.5234184  0.2640698  0.7592335

 Al 
  0.7524788  0.0026707  0.7411638

 Al 
  0.7385773  0.2526793  0.4819898

 Al 
  0.4814007  0.4864289  0.5059366

 Al 
  0.5198530  0.7395339  0.7600490

 Al 
  0.7518638  0.5011188  0.7301161

 Al 
  0.7537127  0.7512834  0.4975929

