32 
charge = 0 
 Al 
  0.9898408  0.9987562  0.9956314

 Al 
  0.9979704  0.2714569  0.2583375

 Al 
  0.2460089  0.9992401  0.2744542

 Al 
  0.2590367  0.2555752  0.9814762

 Al 
  0.5001819  0.9858534  0.0189372

 Al 
  0.4971796  0.2532338  0.2449000

 Al 
  0.7534924  0.0134040  0.2660561

 Al 
  0.7602384  0.2305393  0.9997364

 Al 
  0.9942057  0.4973095  0.9779244

 Al 
  0.9787845  0.7529664  0.2384585

 Al 
  0.2498057  0.5045641  0.2338312

 Al 
  0.2258787  0.7527697  0.0101369

 Al 
  0.9917331  0.9947552  0.4992203

 Al 
  0.9938431  0.2575825  0.7313697

 Al 
  0.2553586  0.9844364  0.7612890

 Al 
  0.2500804  0.2429013  0.5094488

 Al 
  0.0332892  0.5152010  0.4840231

 Al 
  0.9980979  0.7402220  0.7550938

 Al 
  0.2634474  0.5092421  0.7386330

 Al 
  0.2500941  0.7546792  0.4998416

 Al 
  0.4792461  0.5240025  0.0027264

 Al 
  0.5044614  0.7440572  0.2577669

 Al 
  0.7538439  0.4946946  0.2505099

 Al 
  0.7567212  0.7286892  0.0133892

 Al 
  0.4920821  0.9959878  0.5207774

 Al 
  0.5230409  0.2632790  0.7594018

 Al 
  0.7530593  0.0025778  0.7411316

 Al 
  0.7397307  0.2524949  0.4818029

 Al 
  0.4825541  0.4867853  0.5060938

 Al 
  0.5200473  0.7397406  0.7597668

 Al 
  0.7532090  0.5009690  0.7301891

 Al 
  0.7534379  0.7520308  0.4976437

