32 
charge = 0 
 Al 
  0.9896824  0.9986412  0.9961029

 Al 
  0.9980706  0.2705683  0.2581815

 Al 
  0.2460435  0.9998701  0.2738429

 Al 
  0.2587941  0.2553698  0.9812955

 Al 
  0.4998478  0.9853460  0.0189570

 Al 
  0.4959470  0.2536162  0.2448035

 Al 
  0.7533204  0.0134498  0.2660165

 Al 
  0.7600861  0.2310913  0.0006151

 Al 
  0.9939025  0.4974098  0.9784875

 Al 
  0.9786978  0.7534095  0.2383768

 Al 
  0.2495235  0.5049304  0.2339822

 Al 
  0.2258341  0.7532288  0.0097594

 Al 
  0.9922665  0.9941872  0.4988033

 Al 
  0.9941575  0.2575751  0.7309725

 Al 
  0.2557881  0.9841901  0.7616182

 Al 
  0.2496238  0.2429496  0.5095800

 Al 
  0.0330367  0.5145438  0.4843894

 Al 
  0.9984407  0.7397889  0.7553339

 Al 
  0.2633236  0.5097359  0.7383384

 Al 
  0.2502054  0.7541260  0.4996770

 Al 
  0.4790097  0.5240545  0.0023600

 Al 
  0.5043216  0.7441822  0.2577273

 Al 
  0.7538587  0.4950064  0.2505260

 Al 
  0.7567732  0.7287114  0.0132568

 Al 
  0.4924583  0.9960831  0.5209804

 Al 
  0.5228244  0.2628521  0.7594884

 Al 
  0.7533488  0.0025234  0.7411316

 Al 
  0.7403284  0.2524108  0.4817596

 Al 
  0.4831729  0.4869994  0.5061284

 Al 
  0.5201228  0.7398706  0.7596010

 Al 
  0.7539008  0.5008935  0.7302299

 Al 
  0.7532907  0.7523860  0.4976746

