32 
charge = 0 
 Al 
  0.9908495  0.9993577  0.9933865

 Al 
  0.9976994  0.2754084  0.2588820

 Al 
  0.2458282  0.9962168  0.2770049

 Al 
  0.2600428  0.2564663  0.9825343

 Al 
  0.5018229  0.9884016  0.0186736

 Al 
  0.5031187  0.2513502  0.2453171

 Al 
  0.7541508  0.0128385  0.2659151

 Al 
  0.7608126  0.2282164  0.9954557

 Al 
  0.9958368  0.4965423  0.9754307

 Al 
  0.9796483  0.7507562  0.2392567

 Al 
  0.2511633  0.5027127  0.2333573

 Al 
  0.2264281  0.7506002  0.0119276

 Al 
  0.9893198  0.9976462  0.5014096

 Al 
  0.9923444  0.2575368  0.7333486

 Al 
  0.2531484  0.9858200  0.7596604

 Al 
  0.2523043  0.2427021  0.5087545

 Al 
  0.0338869  0.5183234  0.4824996

 Al 
  0.9963653  0.7425920  0.7536273

 Al 
  0.2637518  0.5067880  0.7404064

 Al 
  0.2496819  0.7573412  0.5006992

 Al 
  0.4808326  0.5233590  0.0044639

 Al 
  0.5051049  0.7435263  0.2581815

 Al 
  0.7535790  0.4932974  0.2504604

 Al 
  0.7560678  0.7289255  0.0135711

 Al 
  0.4904968  0.9955844  0.5195894

 Al 
  0.5238379  0.2650896  0.7589835

 Al 
  0.7515878  0.0027622  0.7412826

 Al 
  0.7369462  0.2529887  0.4825231

 Al 
  0.4798772  0.4860824  0.5054799

 Al 
  0.5194483  0.7393582  0.7603485

 Al 
  0.7499505  0.5013440  0.7300319

 Al 
  0.7540679  0.7500668  0.4975360

