32 
charge = 0 
 Al 
  0.9913631  0.9995978  0.9925375

 Al 
  0.9976957  0.2767672  0.2589971

 Al 
  0.2457527  0.9950621  0.2777895

 Al 
  0.2603633  0.2567546  0.9830330

 Al 
  0.5024627  0.9894300  0.0184855

 Al 
  0.5053995  0.2506002  0.2454445

 Al 
  0.7543327  0.0124548  0.2657022

 Al 
  0.7609623  0.2274875  0.9937936

 Al 
  0.9965361  0.4961202  0.9745693

 Al 
  0.9801940  0.7498738  0.2397493

 Al 
  0.2516930  0.5019479  0.2333078

 Al 
  0.2268007  0.7497970  0.0125922

 Al 
  0.9884597  0.9988416  0.5023328

 Al 
  0.9917789  0.2574910  0.7341283

 Al 
  0.2522301  0.9864499  0.7590231

 Al 
  0.2531595  0.2426452  0.5084575

 Al 
  0.0338288  0.5195015  0.4820430

 Al 
  0.9956611  0.7436303  0.7529219

 Al 
  0.2637221  0.5058104  0.7412529

 Al 
  0.2495780  0.7583449  0.5010767

 Al 
  0.4816717  0.5229209  0.0051186

 Al 
  0.5053413  0.7433555  0.2584488

 Al 
  0.7533785  0.4928172  0.2504468

 Al 
  0.7556346  0.7291768  0.0134276

 Al 
  0.4900079  0.9954507  0.5190399

 Al 
  0.5240137  0.2656589  0.7588213

 Al 
  0.7509665  0.0027895  0.7414039

 Al 
  0.7359264  0.2532127  0.4830528

 Al 
  0.4789874  0.4859846  0.5050270

 Al 
  0.5190944  0.7393322  0.7604685

 Al 
  0.7487414  0.5015024  0.7299973

 Al 
  0.7542659  0.7491906  0.4975088

