32 
charge = 0 
 Al 
  0.9895364  0.9985298  0.9965819

 Al 
  0.9981882  0.2696463  0.2580095

 Al 
  0.2460782  0.0005086  0.2731981

 Al 
  0.2585367  0.2551557  0.9811235

 Al 
  0.4995124  0.9848399  0.0189644

 Al 
  0.4946995  0.2540010  0.2447045

 Al 
  0.7531335  0.0134746  0.2659547

 Al 
  0.7599203  0.2316717  0.0015024

 Al 
  0.9936080  0.4974915  0.9790741

 Al 
  0.9786421  0.7538525  0.2383224

 Al 
  0.2492377  0.5052968  0.2341505

 Al 
  0.2258106  0.7536954  0.0093782

 Al 
  0.9928172  0.9936204  0.4983936

 Al 
  0.9944768  0.2575615  0.7305777

 Al 
  0.2562126  0.9839525  0.7619487

 Al 
  0.2491659  0.2430016  0.5097087

 Al 
  0.0327372  0.5138743  0.4847743

 Al 
  0.9987810  0.7393693  0.7555554

 Al 
  0.2631788  0.5102285  0.7380649

 Al 
  0.2503267  0.7535679  0.4995112

 Al 
  0.4787968  0.5240805  0.0019888

 Al 
  0.5041780  0.7443134  0.2577026

 Al 
  0.7538600  0.4953282  0.2505445

 Al 
  0.7567992  0.7287585  0.0130922

 Al 
  0.4928531  0.9961834  0.5211710

 Al 
  0.5225905  0.2624029  0.7595738

 Al 
  0.7536384  0.0024640  0.7411428

 Al 
  0.7409386  0.2523303  0.4817509

 Al 
  0.4838213  0.4872370  0.5061358

 Al 
  0.5201834  0.7400191  0.7594191

 Al 
  0.7546062  0.5008168  0.7302733

 Al 
  0.7531360  0.7527276  0.4977080

