32 
charge = 0 
 Al 
  0.9892864  0.9983182  0.9975583

 Al 
  0.9984691  0.2677058  0.2576172

 Al 
  0.2461475  0.0018081  0.2718083

 Al 
  0.2579711  0.2547015  0.9808091

 Al 
  0.4988404  0.9838350  0.0189483

 Al 
  0.4921650  0.2547770  0.2444990

 Al 
  0.7527103  0.0134560  0.2657616

 Al 
  0.7595478  0.2329192  0.0032944

 Al 
  0.9930474  0.4975929  0.9803166

 Al 
  0.9786211  0.7547374  0.2382964

 Al 
  0.2486498  0.5060294  0.2345416

 Al 
  0.2258279  0.7546470  0.0086035

 Al 
  0.9939718  0.9924917  0.4975979

 Al 
  0.9951265  0.2575120  0.7297943

 Al 
  0.2570492  0.9835082  0.7626058

 Al 
  0.2482476  0.2431130  0.5099562

 Al 
  0.0319959  0.5125031  0.4855985

 Al 
  0.9994592  0.7385798  0.7559403

 Al 
  0.2628323  0.5112123  0.7375798

 Al 
  0.2505977  0.7524429  0.4991745

 Al 
  0.4784478  0.5240557  0.0012314

 Al 
  0.5038773  0.7445919  0.2576952

 Al 
  0.7538278  0.4959990  0.2505940

 Al 
  0.7567670  0.7289255  0.0126652

 Al 
  0.4936959  0.9963987  0.5215125

 Al 
  0.5220707  0.2614450  0.7597458

 Al 
  0.7542250  0.0023316  0.7412009

 Al 
  0.7421947  0.2521880  0.4818313

 Al 
  0.4852049  0.4877803  0.5060653

 Al 
  0.5202676  0.7403668  0.7590020

 Al 
  0.7560492  0.5006571  0.7303685

 Al 
  0.7528093  0.7533699  0.4977848

