32 
charge = 0 
 Al 
  0.9887902  0.9977885  0.0010878

 Al 
  0.9999295  0.2601096  0.2557534

 Al 
  0.2463863  0.0064229  0.2660648

 Al 
  0.2554663  0.2529256  0.9800257

 Al 
  0.4965658  0.9805109  0.0185560

 Al 
  0.4831432  0.2575281  0.2437899

 Al 
  0.7507153  0.0126900  0.2644176

 Al 
  0.7578078  0.2380600  0.0095651

 Al 
  0.9914806  0.4973021  0.9853336

 Al 
  0.9794936  0.7577075  0.2390872

 Al 
  0.2464383  0.5085862  0.2363682

 Al 
  0.2265581  0.7579971  0.0059292

 Al 
  0.9984877  0.9886577  0.4951661

 Al 
  0.9974506  0.2570504  0.7273192

 Al 
  0.2597396  0.9823177  0.7647121

 Al 
  0.2452057  0.2435597  0.5106864

 Al 
  0.0279231  0.5074984  0.4889003

 Al 
  0.0017115  0.7364202  0.7566210

 Al 
  0.2610848  0.5144733  0.7366120

 Al 
  0.2518353  0.7486028  0.4978875

 Al 
  0.4779838  0.5231523  0.9985199

 Al 
  0.5027016  0.7457267  0.2581184

 Al 
  0.7533736  0.4985607  0.2509133

 Al 
  0.7557980  0.7303042  0.0101864

 Al 
  0.4970571  0.9973244  0.5221796

 Al 
  0.5198121  0.2575813  0.7603225

 Al 
  0.7563858  0.0017660  0.7418333

 Al 
  0.7468467  0.2518749  0.4831060

 Al 
  0.4908482  0.4902666  0.5049911

 Al 
  0.5201710  0.7420796  0.7570355

 Al 
  0.7612631  0.5000198  0.7307695

 Al 
  0.7515395  0.7551359  0.4981437

