32 
charge = 0 
 Al 
  0.9891800  0.9982204  0.9980558

 Al 
  0.9986350  0.2666898  0.2573957

 Al 
  0.2461821  0.0024665  0.2710670

 Al 
  0.2576642  0.2544627  0.9806668

 Al 
  0.4985050  0.9833375  0.0189248

 Al 
  0.4908816  0.2551681  0.2443951

 Al 
  0.7524751  0.0134139  0.2656304

 Al 
  0.7593411  0.2335837  0.0041966

 Al 
  0.9927825  0.4976140  0.9809725

 Al 
  0.9786558  0.7551780  0.2383273

 Al 
  0.2483479  0.5063970  0.2347607

 Al 
  0.2258688  0.7551297  0.0082125

 Al 
  0.9945758  0.9919311  0.4972142

 Al 
  0.9954557  0.2574749  0.7294107

 Al 
  0.2574588  0.9833028  0.7629313

 Al 
  0.2477897  0.2431711  0.5100750

 Al 
  0.0315529  0.5118039  0.4860353

 Al 
  0.9997946  0.7382097  0.7561024

 Al 
  0.2626306  0.5116999  0.7373719

 Al 
  0.2507487  0.7518786  0.4990025

 Al 
  0.4783105  0.5240025  0.0008465

 Al 
  0.5037201  0.7447404  0.2577137

 Al 
  0.7537944  0.4963480  0.2506250

 Al 
  0.7567088  0.7290468  0.0124016

 Al 
  0.4941401  0.9965150  0.5216598

 Al 
  0.5217873  0.2609376  0.7598312

 Al 
  0.7545233  0.0022598  0.7412504

 Al 
  0.7428395  0.2521249  0.4819217

 Al 
  0.4859388  0.4880835  0.5059873

 Al 
  0.5202898  0.7405661  0.7587681

 Al 
  0.7567843  0.5005755  0.7304193

 Al 
  0.7526385  0.7536694  0.4978268

