32 
charge = 0 
 Al 
  0.9887679  0.9976932  0.0039231

 Al 
  0.0015977  0.2533328  0.2537511

 Al 
  0.2465856  0.0099834  0.2605972

 Al 
  0.2527969  0.2513687  0.9797609

 Al 
  0.4949545  0.9782325  0.0178419

 Al 
  0.4760173  0.2597631  0.2433308

 Al 
  0.7484914  0.0112593  0.2626788

 Al 
  0.7558438  0.2429843  0.0143854

 Al 
  0.9907814  0.4963603  0.9900710

 Al 
  0.9812559  0.7597928  0.2406688

 Al 
  0.2444471  0.5106319  0.2382630

 Al 
  0.2278724  0.7604574  0.0040505

 Al 
  0.0025556  0.9857705  0.4937355

 Al 
  0.9992946  0.2562621  0.7259146

 Al 
  0.2615366  0.9818586  0.7659126

 Al 
  0.2432293  0.2439669  0.5110440

 Al 
  0.0229667  0.5033897  0.4918259

 Al 
  0.0033377  0.7355193  0.7563623

 Al 
  0.2591827  0.5166823  0.7367036

 Al 
  0.2531125  0.7458628  0.4966326

 Al 
  0.4784553  0.5214989  0.9964061

 Al 
  0.5016237  0.7467848  0.2589389

 Al 
  0.7526694  0.5007846  0.2513700

 Al 
  0.7541297  0.7323326  0.0071741

 Al 
  0.5000693  0.9982711  0.5219692

 Al 
  0.5175932  0.2540221  0.7607210

 Al 
  0.7583387  0.0012450  0.7429001

 Al 
  0.7507722  0.2518081  0.4851554

 Al 
  0.4961846  0.4927961  0.5033031

 Al 
  0.5196772  0.7439508  0.7548809

 Al 
  0.7654002  0.4993688  0.7312188

 Al 
  0.7504554  0.7559638  0.4985100

