32 
charge = 0 
 Al 
  0.9889374  0.9978850  0.0058735

 Al 
  0.0030778  0.2481399  0.2520469

 Al 
  0.2467440  0.0123026  0.2561754

 Al 
  0.2503898  0.2502079  0.9798017

 Al 
  0.4940226  0.9769615  0.0170548

 Al 
  0.4711215  0.2614079  0.2431154

 Al 
  0.7464717  0.0097037  0.2610886

 Al 
  0.7539738  0.2470125  0.0176155

 Al 
  0.9906836  0.4953171  0.9939223

 Al 
  0.9831791  0.7609772  0.2423370

 Al 
  0.2428159  0.5121170  0.2398607

 Al 
  0.2292547  0.7618905  0.0030159

 Al 
  0.0057163  0.9838560  0.4931204

 Al 
  0.0005779  0.2553252  0.7255210

 Al 
  0.2625353  0.9819167  0.7662480

 Al 
  0.2422900  0.2442874  0.5110774

 Al 
  0.0183246  0.5004678  0.4939483

 Al 
  0.0043723  0.7355057  0.7556717

 Al 
  0.2575665  0.5178778  0.7373311

 Al 
  0.2541780  0.7442193  0.4955349

 Al 
  0.4793327  0.5197057  0.9950114

 Al 
  0.5007586  0.7476239  0.2597854

 Al 
  0.7519714  0.5024949  0.2518440

 Al 
  0.7524788  0.7343943  0.0044305

 Al 
  0.5023563  0.9991015  0.5212254

 Al 
  0.5157641  0.2512165  0.7609475

 Al 
  0.7599772  0.0008502  0.7440820

 Al 
  0.7537015  0.2518118  0.4871863

 Al 
  0.5004864  0.4948901  0.5016596

 Al 
  0.5190374  0.7455732  0.7529466

 Al 
  0.7682058  0.4987835  0.7317187

 Al 
  0.7496993  0.7561754  0.4988008

