32 
charge = 0 
 Al 
  0.9887914  0.9977130  0.0043488

 Al 
  0.0018922  0.2522474  0.2534070

 Al 
  0.2466190  0.0105007  0.2596914

 Al 
  0.2523241  0.2511237  0.9797510

 Al 
  0.4947354  0.9779293  0.0176959

 Al 
  0.4749517  0.2601096  0.2432751

 Al 
  0.7480942  0.0109685  0.2623645

 Al 
  0.7554849  0.2438060  0.0150945

 Al 
  0.9907282  0.4961636  0.9908581

 Al 
  0.9816160  0.7600738  0.2409856

 Al 
  0.2441179  0.5109475  0.2385860

 Al 
  0.2281335  0.7607953  0.0038018

 Al 
  0.0032115  0.9853485  0.4935696

 Al 
  0.9995718  0.2560962  0.7257747

 Al 
  0.2617754  0.9818375  0.7660314

 Al 
  0.2429867  0.2440325  0.5110712

 Al 
  0.0220608  0.5027622  0.4922826

 Al 
  0.0035679  0.7354636  0.7562534

 Al 
  0.2588548  0.5169719  0.7367927

 Al 
  0.2533303  0.7454854  0.4964148

 Al 
  0.4786001  0.5211648  0.9960967

 Al 
  0.5014467  0.7469581  0.2591023

 Al 
  0.7525345  0.5011398  0.2514591

 Al 
  0.7538092  0.7327249  0.0066321

 Al 
  0.5005495  0.9984357  0.5218603

 Al 
  0.5172219  0.2534429  0.7607742

 Al 
  0.7586667  0.0011621  0.7431179

 Al 
  0.7513885  0.2518068  0.4855477

 Al 
  0.4970670  0.4932231  0.5029825

 Al 
  0.5195646  0.7442763  0.7544998

 Al 
  0.7660153  0.4992537  0.7313079

 Al 
  0.7502896  0.7560381  0.4985706

