32 
charge = 0 
 Al 
  0.9889832  0.9979506  0.0062076

 Al 
  0.0033724  0.2471759  0.2517165

 Al 
  0.2467749  0.0126838  0.2553277

 Al 
  0.2498973  0.2499975  0.9798339

 Al 
  0.4938852  0.9767809  0.0168816

 Al 
  0.4702725  0.2617111  0.2430919

 Al 
  0.7460608  0.0093671  0.2607693

 Al 
  0.7535778  0.2477910  0.0181674

 Al 
  0.9907133  0.4950968  0.9946649

 Al 
  0.9835949  0.7611455  0.2426897

 Al 
  0.2424942  0.5123868  0.2401725

 Al 
  0.2295505  0.7620984  0.0028724

 Al 
  0.0063091  0.9835330  0.4930597

 Al 
  0.0008032  0.2551062  0.7255371

 Al 
  0.2626788  0.9819749  0.7662356

 Al 
  0.2421848  0.2443493  0.5110527

 Al 
  0.0173717  0.4999517  0.4943196

 Al 
  0.0045431  0.7355799  0.7554948

 Al 
  0.2572546  0.5180412  0.7375056

 Al 
  0.2543834  0.7439632  0.4953158

 Al 
  0.4795493  0.5193159  0.9947775

 Al 
  0.5005916  0.7477835  0.2599599

 Al 
  0.7518254  0.5028179  0.2519454

 Al 
  0.7521422  0.7348337  0.0038798

 Al 
  0.5027771  0.9992698  0.5210200

 Al 
  0.5154077  0.2506868  0.7609797

 Al 
  0.7603052  0.0007772  0.7443443

 Al 
  0.7542399  0.2518106  0.4876046

 Al 
  0.5013081  0.4952935  0.5013242

 Al 
  0.5188877  0.7458925  0.7525543

 Al 
  0.7686835  0.4986647  0.7318388

 Al 
  0.7495730  0.7561717  0.4988553

