32 
charge = 0 
 Al 
  0.9893681  0.9986102  0.0080194

 Al 
  0.0053537  0.2411292  0.2495681

 Al 
  0.2470039  0.0145785  0.2497587

 Al 
  0.2463616  0.2487166  0.9802436

 Al 
  0.4933865  0.9762004  0.0155215

 Al 
  0.4654819  0.2636379  0.2430907

 Al 
  0.7431674  0.0068326  0.2585540

 Al 
  0.7505854  0.2529602  0.0212403

 Al 
  0.9913111  0.4935820  0.9995990

 Al 
  0.9867012  0.7617024  0.2452366

 Al 
  0.2402579  0.5140364  0.2422887

 Al 
  0.2317546  0.7628038  0.0023996

 Al 
  0.0101195  0.9817757  0.4931959

 Al 
  0.0021558  0.2532300  0.7265457

 Al 
  0.2631813  0.9827979  0.7654039

 Al 
  0.2422058  0.2447626  0.5105713

 Al 
  0.0106047  0.4969680  0.4963616

 Al 
  0.0054391  0.7367593  0.7539936

 Al 
  0.2552077  0.5185313  0.7391082

 Al 
  0.2557052  0.7427813  0.4938023

 Al 
  0.4813846  0.5163507  0.9935461

 Al 
  0.4994678  0.7488256  0.2611430

 Al 
  0.7507871  0.5049564  0.2527004

 Al 
  0.7498552  0.7380984  0.0000644

 Al 
  0.5053636  0.0005037  0.5190597

 Al 
  0.5129969  0.2472501  0.7611022

 Al 
  0.7626368  0.0003156  0.7463950

 Al 
  0.7576023  0.2517214  0.4905512

 Al 
  0.5067002  0.4979419  0.4990100

 Al 
  0.5176080  0.7480310  0.7497711

 Al 
  0.7712663  0.4978169  0.7329464

 Al 
  0.7489778  0.7557918  0.4992067

