32 
charge = 0 
 Al 
  0.9890847  0.9981041  0.0068190

 Al 
  0.0039540  0.2453270  0.2510717

 Al 
  0.2468368  0.0133620  0.2536743

 Al 
  0.2489048  0.2495966  0.9799205

 Al 
  0.4936624  0.9764950  0.0165202

 Al 
  0.4687058  0.2622939  0.2430622

 Al 
  0.7452379  0.0086741  0.2601332

 Al 
  0.7527660  0.2493144  0.0191810

 Al 
  0.9908160  0.4946574  0.9961190

 Al 
  0.9844500  0.7614153  0.2434050

 Al 
  0.2418568  0.5128991  0.2407888

 Al 
  0.2301569  0.7624326  0.0026447

 Al 
  0.0074551  0.9829414  0.4930016

 Al 
  0.0012277  0.2546334  0.7256633

 Al 
  0.2629090  0.9821370  0.7661316

 Al 
  0.2420573  0.2444693  0.5109698

 Al 
  0.0154559  0.4989901  0.4950040

 Al 
  0.0048500  0.7358002  0.7551099

 Al 
  0.2566445  0.5182974  0.7378979

 Al 
  0.2547807  0.7435201  0.4948777

 Al 
  0.4800196  0.5185102  0.9943567

 Al 
  0.5002636  0.7480929  0.2603077

 Al 
  0.7515321  0.5034478  0.2521546

 Al 
  0.7514727  0.7357321  0.0027808

 Al 
  0.5035778  0.9996114  0.5205522

 Al 
  0.5147072  0.2496584  0.7610341

 Al 
  0.7609623  0.0006373  0.7448901

 Al 
  0.7552708  0.2518031  0.4884474

 Al 
  0.5029107  0.4960819  0.5006547

 Al 
  0.5185647  0.7465200  0.7517660

 Al 
  0.7695547  0.4984246  0.7321011

 Al 
  0.7493490  0.7561235  0.4989604

