32 
charge = 0 
 Al 
  0.9896676  0.9992513  0.0087669

 Al 
  0.0066568  0.2374486  0.2482328

 Al 
  0.2472303  0.0151205  0.2460621

 Al 
  0.2436761  0.2479877  0.9807002

 Al 
  0.4934991  0.9765074  0.0143421

 Al 
  0.4631206  0.2648805  0.2432602

 Al 
  0.7410611  0.0048265  0.2569601

 Al 
  0.7481078  0.2564675  0.0227278

 Al 
  0.9921130  0.4925882  0.0029491

 Al 
  0.9891218  0.7614536  0.2471202

 Al 
  0.2385971  0.5149894  0.2437812

 Al 
  0.2334983  0.7625241  0.0025580

 Al 
  0.0125773  0.9810059  0.4938679

 Al 
  0.0029689  0.2514591  0.7282758

 Al 
  0.2630365  0.9838300  0.7639968

 Al 
  0.2429979  0.2450683  0.5098869

 Al 
  0.0056297  0.4954297  0.4972155

 Al 
  0.0058116  0.7382927  0.7526892

 Al 
  0.2538686  0.5182083  0.7406354

 Al 
  0.2565356  0.7425066  0.4927677

 Al 
  0.4830281  0.5139634  0.9930362

 Al 
  0.4986733  0.7495347  0.2618769

 Al 
  0.7500272  0.5064440  0.2532709

 Al 
  0.7483466  0.7406713  0.9973553

 Al 
  0.5068796  0.0014999  0.5170660

 Al 
  0.5112779  0.2449953  0.7610762

 Al 
  0.7644052  0.0000099  0.7481177

 Al 
  0.7596579  0.2514925  0.4926514

 Al 
  0.5102643  0.4996634  0.4974296

 Al 
  0.5163915  0.7494802  0.7477018

 Al 
  0.7723578  0.4971870  0.7341741

 Al 
  0.7489171  0.7552139  0.4994468

