32 
charge = 0 
 Al 
  0.9897876  0.9995347  0.0089389

 Al 
  0.0071407  0.2360985  0.2477464

 Al 
  0.2473516  0.0151403  0.2446191

 Al 
  0.2425462  0.2477315  0.9809180

 Al 
  0.4936525  0.9768056  0.0138013

 Al 
  0.4623905  0.2653631  0.2433667

 Al 
  0.7401997  0.0039689  0.2563029

 Al 
  0.7470063  0.2578610  0.0231857

 Al 
  0.9925152  0.4922219  0.0042807

 Al 
  0.9901465  0.7612074  0.2478924

 Al 
  0.2378991  0.5153223  0.2443938

 Al 
  0.2342495  0.7622296  0.0027214

 Al 
  0.0135278  0.9808005  0.4942738

 Al 
  0.0032808  0.2506299  0.7292238

 Al 
  0.2628620  0.9843535  0.7632345

 Al 
  0.2434941  0.2452044  0.5095305

 Al 
  0.0035877  0.4949322  0.4974160

 Al 
  0.0059081  0.7390736  0.7521162

 Al 
  0.2533488  0.5179211  0.7413383

 Al 
  0.2568437  0.7425152  0.4923680

 Al 
  0.4837743  0.5129325  0.9929051

 Al 
  0.4983441  0.7498230  0.2621256

 Al 
  0.7497178  0.5070516  0.2534998

 Al 
  0.7477786  0.7417727  0.9962564

 Al 
  0.5074217  0.0019417  0.5161094

 Al 
  0.5105675  0.2441154  0.7610391

 Al 
  0.7651502  0.9998849  0.7488763

 Al 
  0.7604203  0.2513403  0.4934966

 Al 
  0.5116504  0.5003181  0.4968182

 Al 
  0.5158148  0.7500520  0.7468417

 Al 
  0.7726276  0.4969259  0.7348126

 Al 
  0.7489939  0.7549280  0.4995495

