32 
charge = 0 
 Al 
  0.9896070  0.9991151  0.0086543

 Al 
  0.0064056  0.2381491  0.2484865

 Al 
  0.2471771  0.0150673  0.2467898

 Al 
  0.2442280  0.2481226  0.9805987

 Al 
  0.4934459  0.9763960  0.0145958

 Al 
  0.4635303  0.2646367  0.2432144

 Al 
  0.7414868  0.0052423  0.2572831

 Al 
  0.7486325  0.2557708  0.0224704

 Al 
  0.9919299  0.4927776  0.0022845

 Al 
  0.9886219  0.7615452  0.2467378

 Al 
  0.2389374  0.5148124  0.2434793

 Al 
  0.2331357  0.7626318  0.0024974

 Al 
  0.0120972  0.9811309  0.4936946

 Al 
  0.0028105  0.2518464  0.7278588

 Al 
  0.2630996  0.9835924  0.7643347

 Al 
  0.2427887  0.2450040  0.5100465

 Al 
  0.0066383  0.4957032  0.4970843

 Al 
  0.0057522  0.7379387  0.7529640

 Al 
  0.2541310  0.5183172  0.7403049

 Al 
  0.2563759  0.7425276  0.4929706

 Al 
  0.4826754  0.5144622  0.9931179

 Al 
  0.4988342  0.7493924  0.2617408

 Al 
  0.7501807  0.5061433  0.2531558

 Al 
  0.7486387  0.7401379  0.9978999

 Al 
  0.5065950  0.0012895  0.5175090

 Al 
  0.5116269  0.2454396  0.7610886

 Al 
  0.7640414  0.0000705  0.7477538

 Al 
  0.7592656  0.2515531  0.4922306

 Al 
  0.5095639  0.4993292  0.4977402

 Al 
  0.5166588  0.7491931  0.7481251

 Al 
  0.7721883  0.4973157  0.7338894

 Al 
  0.7489010  0.7553463  0.4993973

