32 
charge = 0 
 Al 
  0.9899052  0.9998280  0.0090354

 Al 
  0.0075986  0.2348151  0.2472922

 Al 
  0.2474989  0.0150401  0.2431860

 Al 
  0.2413816  0.2474952  0.9811556

 Al 
  0.4938691  0.9772128  0.0132110

 Al 
  0.4617791  0.2658433  0.2434941

 Al 
  0.7393260  0.0030741  0.2556272

 Al 
  0.7458307  0.2592570  0.0235731

 Al 
  0.9929607  0.4918791  0.0056136

 Al 
  0.9912084  0.7608769  0.2486770

 Al 
  0.2371764  0.5156255  0.2450213

 Al 
  0.2350379  0.7618286  0.0029343

 Al 
  0.0144659  0.9806519  0.4947639

 Al 
  0.0035951  0.2497253  0.7303265

 Al 
  0.2626169  0.9849438  0.7623533

 Al 
  0.2440919  0.2453530  0.5091270

 Al 
  0.0015123  0.4944978  0.4975373

 Al 
  0.0059774  0.7399522  0.7515160

 Al 
  0.2528315  0.5175387  0.7420945

 Al 
  0.2571370  0.7425858  0.4919818

 Al 
  0.4845738  0.5118521  0.9928122

 Al 
  0.4980063  0.7501188  0.2623410

 Al 
  0.7494047  0.5076729  0.2537263

 Al 
  0.7472316  0.7429211  0.9951413

 Al 
  0.5079328  0.0024145  0.5150525

 Al 
  0.5098374  0.2432392  0.7609858

 Al 
  0.7659188  0.9997574  0.7496758

 Al 
  0.7611529  0.2511472  0.4943468

 Al 
  0.5130229  0.5009542  0.4962242

 Al 
  0.5151787  0.7506213  0.7459569

 Al 
  0.7728009  0.4966561  0.7355564

 Al 
  0.7491349  0.7546161  0.4996597

