32 
charge = 0 
 Al 
  0.9901911  0.0005718  0.0089265

 Al 
  0.0085825  0.2319192  0.2463170

 Al 
  0.2480088  0.0142184  0.2396540

 Al 
  0.2383211  0.2469964  0.9818412

 Al 
  0.4946896  0.9787337  0.0114821

 Al 
  0.4607755  0.2670313  0.2439038

 Al 
  0.7371046  0.0006868  0.2538426

 Al 
  0.7425511  0.2627716  0.0242426

 Al 
  0.9942441  0.4911329  0.0089661

 Al 
  0.9940337  0.7596963  0.2506868

 Al 
  0.2352693  0.5162331  0.2466846

 Al 
  0.2371850  0.7603609  0.0036632

 Al 
  0.0167714  0.9805492  0.4963554

 Al 
  0.0044119  0.2471388  0.7337731

 Al 
  0.2616863  0.9867197  0.7596208

 Al 
  0.2460188  0.2458121  0.5079229

 Al 
  0.9962081  0.4936686  0.4974915

 Al 
  0.0060504  0.7425808  0.7499010

 Al 
  0.2515346  0.5161576  0.7442082

 Al 
  0.2578053  0.7430300  0.4910957

 Al 
  0.4868299  0.5089402  0.9927343

 Al 
  0.4971091  0.7509059  0.2626813

 Al 
  0.7486115  0.5092953  0.2542399

 Al 
  0.7459705  0.7459878  0.9922838

 Al 
  0.5090775  0.0037511  0.5119412

 Al 
  0.5079031  0.2410574  0.7607717

 Al 
  0.7679211  0.9994196  0.7518464

 Al 
  0.7628533  0.2504319  0.4964952

 Al 
  0.5163730  0.5024454  0.4948431

 Al 
  0.5133100  0.7520432  0.7436414

 Al 
  0.7727934  0.4959457  0.7379499

 Al 
  0.7498020  0.7537671  0.4999913

