32 
charge = 0 
 Al 
  0.9906119  0.0015333  0.0077051

 Al 
  0.0094055  0.2285184  0.2454680

 Al 
  0.2493132  0.0111158  0.2344451

 Al 
  0.2333498  0.2465299  0.9832397

 Al 
  0.4967625  0.9826518  0.0079105

 Al 
  0.4608448  0.2687924  0.2447515

 Al 
  0.7337310  0.9966289  0.2507178

 Al 
  0.7365650  0.2681748  0.0244666

 Al 
  0.9965732  0.4904077  0.0141330

 Al 
  0.9988355  0.7569774  0.2538426

 Al 
  0.2321370  0.5165450  0.2496089

 Al 
  0.2410264  0.7567967  0.0051470

 Al 
  0.0202143  0.9812905  0.4998441

 Al 
  0.0058326  0.2423123  0.7410029

 Al 
  0.2592891  0.9902567  0.7539218

 Al 
  0.2500792  0.2469061  0.5055987

 Al 
  0.9880031  0.4930783  0.4965076

 Al 
  0.0059750  0.7477365  0.7471660

 Al 
  0.2494357  0.5127444  0.7479914

 Al 
  0.2585924  0.7444174  0.4901577

 Al 
  0.4910400  0.5039689  0.9930090

 Al 
  0.4955782  0.7522870  0.2623533

 Al 
  0.7473826  0.5120155  0.2546557

 Al 
  0.7443765  0.7511707  0.9877358

 Al 
  0.5104685  0.0062967  0.5057559

 Al 
  0.5045815  0.2377345  0.7601344

 Al 
  0.7710051  0.9988590  0.7555245

 Al 
  0.7650413  0.2484493  0.4998602

 Al 
  0.5211450  0.5043451  0.4932627

 Al 
  0.5095527  0.7542275  0.7398074

 Al 
  0.7714284  0.4947651  0.7435077

 Al 
  0.7518242  0.7524640  0.5007698

