32 
charge = 0 
 Al 
  0.9904064  0.0011163  0.0084686

 Al 
  0.0091344  0.2299948  0.2457589

 Al 
  0.2485879  0.0129350  0.2369375

 Al 
  0.2357940  0.2467044  0.9824922

 Al 
  0.4956252  0.9804812  0.0098151

 Al 
  0.4605453  0.2679496  0.2443072

 Al 
  0.7353485  0.9986597  0.2523093

 Al 
  0.7396230  0.2655549  0.0244802

 Al 
  0.9953975  0.4906861  0.0116207

 Al 
  0.9964284  0.7584290  0.2523019

 Al 
  0.2336815  0.5165140  0.2481152

 Al 
  0.2390661  0.7587347  0.0043872

 Al 
  0.0185548  0.9807695  0.4979865

 Al 
  0.0051099  0.2447849  0.7371875

 Al 
  0.2606133  0.9884127  0.7569328

 Al 
  0.2479456  0.2462985  0.5067955

 Al 
  0.9919781  0.4932639  0.4971177

 Al 
  0.0060282  0.7450646  0.7485298

 Al 
  0.2504851  0.5146144  0.7460757

 Al 
  0.2582508  0.7436365  0.4905265

 Al 
  0.4888731  0.5064551  0.9928172

 Al 
  0.4963467  0.7515853  0.2626764

 Al 
  0.7479803  0.5106529  0.2545381

 Al 
  0.7450968  0.7485842  0.9899671

 Al 
  0.5098485  0.0049750  0.5089946

 Al 
  0.5062571  0.2393471  0.7605032

 Al 
  0.7695300  0.9991349  0.7536966

 Al 
  0.7640488  0.2495792  0.4982117

 Al 
  0.5188988  0.5034936  0.4939223

 Al 
  0.5115304  0.7531620  0.7417158

 Al 
  0.7723145  0.4953517  0.7404732

 Al 
  0.7506745  0.7530766  0.5003379

