32 
charge = 0 
 Al 
  0.9905104  0.0013452  0.0081209

 Al 
  0.0093077  0.2291953  0.2455757

 Al 
  0.2489345  0.0120873  0.2356542

 Al 
  0.2345503  0.2466017  0.9828536

 Al 
  0.4961722  0.9815195  0.0088894

 Al 
  0.4606282  0.2683840  0.2445263

 Al 
  0.7345131  0.9976375  0.2515185

 Al 
  0.7380984  0.2668964  0.0245025

 Al 
  0.9959878  0.4905227  0.0129028

 Al 
  0.9976387  0.7577174  0.2530877

 Al 
  0.2328956  0.5165648  0.2488565

 Al 
  0.2400426  0.7577966  0.0047696

 Al 
  0.0194050  0.9809923  0.4988961

 Al 
  0.0054700  0.2435523  0.7390599

 Al 
  0.2599772  0.9893235  0.7554564

 Al 
  0.2489963  0.2465868  0.5062014

 Al 
  0.9899423  0.4931451  0.4968368

 Al 
  0.0060022  0.7463900  0.7478405

 Al 
  0.2499592  0.5137134  0.7470360

 Al 
  0.2584365  0.7440090  0.4903124

 Al 
  0.4899498  0.5052002  0.9929013

 Al 
  0.4959606  0.7519368  0.2625575

 Al 
  0.7476746  0.5113373  0.2546235

 Al 
  0.7447156  0.7498886  0.9888322

 Al 
  0.5101790  0.0056272  0.5074006

 Al 
  0.5054180  0.2385241  0.7603312

 Al 
  0.7702935  0.9989939  0.7546223

 Al 
  0.7645735  0.2490483  0.4990496

 Al 
  0.5200658  0.5039478  0.4935535

 Al 
  0.5105614  0.7537040  0.7407529

 Al 
  0.7719197  0.4950559  0.7419336

 Al 
  0.7512178  0.7527548  0.5005433

