32 
charge = 0 
 Al 
  0.9901354  0.0004257  0.0089897

 Al 
  0.0084080  0.2324588  0.2464903

 Al 
  0.2478887  0.0144510  0.2403532

 Al 
  0.2389473  0.2470855  0.9816927

 Al 
  0.4944941  0.9783699  0.0118596

 Al 
  0.4609153  0.2667962  0.2438122

 Al 
  0.7375501  0.0011806  0.2542114

 Al 
  0.7432454  0.2620675  0.0241424

 Al 
  0.9939706  0.4912678  0.0082954

 Al 
  0.9934508  0.7599723  0.2502809

 Al 
  0.2356616  0.5161316  0.2463405

 Al 
  0.2367358  0.7607062  0.0034974

 Al 
  0.0163160  0.9805369  0.4959952

 Al 
  0.0042436  0.2476919  0.7330058

 Al 
  0.2619103  0.9863311  0.7602272

 Al 
  0.2455869  0.2457094  0.5081840

 Al 
  0.9972774  0.4938048  0.4975397

 Al 
  0.0060467  0.7420078  0.7502351

 Al 
  0.2517957  0.5164831  0.7437614

 Al 
  0.2576803  0.7429125  0.4912603

 Al 
  0.4863497  0.5095453  0.9927330

 Al 
  0.4972947  0.7507438  0.2626405

 Al 
  0.7487699  0.5089637  0.2541458

 Al 
  0.7462093  0.7453542  0.9928630

 Al 
  0.5088634  0.0034652  0.5126169

 Al 
  0.5083028  0.2414930  0.7608250

 Al 
  0.7675152  0.9994889  0.7513947

 Al 
  0.7625303  0.2506039  0.4960646

 Al 
  0.5157158  0.5021608  0.4951030

 Al 
  0.5137171  0.7517598  0.7441154

 Al 
  0.7728466  0.4960918  0.7374041

 Al 
  0.7496312  0.7539416  0.4999171

