32 
charge = 0 
 Al 
  0.9908618  0.0017672  0.0064452

 Al 
  0.0092879  0.2273823  0.2455596

 Al 
  0.2503638  0.0082471  0.2318450

 Al 
  0.2306903  0.2464878  0.9843263

 Al 
  0.4983528  0.9857891  0.0052856

 Al 
  0.4619326  0.2696525  0.2453109

 Al 
  0.7321135  0.9942664  0.2487278

 Al 
  0.7328647  0.2709631  0.0241498

 Al 
  0.9979258  0.4903458  0.0168791

 Al 
  0.0016460  0.7551198  0.2555270

 Al 
  0.2304502  0.5161551  0.2514913

 Al 
  0.2434508  0.7541409  0.0059824

 Al 
  0.0219841  0.9823796  0.5022499

 Al 
  0.0067064  0.2393112  0.7459346

 Al 
  0.2574155  0.9925721  0.7499938

 Al 
  0.2527845  0.2478244  0.5041335

 Al 
  0.9837669  0.4931266  0.4955559

 Al 
  0.0059440  0.7510198  0.7456178

 Al 
  0.2481597  0.5101257  0.7502599

 Al 
  0.2588535  0.7455435  0.4900661

 Al 
  0.4937194  0.5011311  0.9933493

 Al 
  0.4946834  0.7531347  0.2614574

 Al 
  0.7467254  0.5136478  0.2544527

 Al 
  0.7437243  0.7541446  0.9852780

 Al 
  0.5109945  0.0079786  0.5015692

 Al 
  0.5025717  0.2359784  0.7595243

 Al 
  0.7724271  0.9985805  0.7575566

 Al 
  0.7659250  0.2466660  0.5017103

 Al 
  0.5233491  0.5050592  0.4929273

 Al 
  0.5069477  0.7554230  0.7375934

 Al 
  0.7698344  0.4941030  0.7478182

 Al 
  0.7535419  0.7519355  0.5014195

