32 
charge = 0 
 Al 
  0.9909658  0.0017512  0.0058883

 Al 
  0.0090986  0.2271435  0.2457453

 Al 
  0.2508081  0.0069700  0.2310022

 Al 
  0.2298104  0.2465237  0.9848151

 Al 
  0.4990087  0.9871269  0.0041817

 Al 
  0.4625674  0.2699198  0.2455250

 Al 
  0.7316370  0.9934125  0.2479469

 Al 
  0.7314947  0.2718690  0.0239493

 Al 
  0.9983961  0.4904151  0.0178197

 Al 
  0.0026583  0.7544193  0.2560999

 Al 
  0.2298946  0.5158519  0.2522350

 Al 
  0.2443827  0.7530568  0.0062447

 Al 
  0.0225694  0.9829476  0.5031731

 Al 
  0.0070244  0.2381974  0.7478615

 Al 
  0.2566408  0.9934570  0.7484444

 Al 
  0.2538191  0.2482328  0.5035815

 Al 
  0.9823672  0.4932194  0.4951599

 Al 
  0.0059601  0.7522400  0.7450807

 Al 
  0.2476697  0.5090404  0.7510903

 Al 
  0.2589067  0.7460138  0.4901552

 Al 
  0.4947317  0.5001398  0.9935028

 Al 
  0.4943604  0.7534491  0.2609462

 Al 
  0.7464965  0.5142641  0.2542473

 Al 
  0.7435424  0.7552002  0.9844426

 Al 
  0.5111257  0.0086332  0.4999158

 Al 
  0.5018229  0.2353807  0.7592335

 Al 
  0.7728145  0.9985050  0.7582434

 Al 
  0.7661564  0.2458480  0.5023662

 Al 
  0.5240124  0.5052275  0.4929607

 Al 
  0.5059007  0.7558487  0.7367903

 Al 
  0.7690733  0.4938741  0.7496411

 Al 
  0.7542820  0.7518242  0.5017066

