32 
charge = 0 
 Al 
  0.9910190  0.0017177  0.0056037

 Al 
  0.0089736  0.2270680  0.2458703

 Al 
  0.2510334  0.0063103  0.2306247

 Al 
  0.2294169  0.2465522  0.9850738

 Al 
  0.4993379  0.9878088  0.0036211

 Al 
  0.4629226  0.2700361  0.2456289

 Al 
  0.7314390  0.9930090  0.2475620

 Al 
  0.7308413  0.2722712  0.0238355

 Al 
  0.9986139  0.4904708  0.0182528

 Al 
  0.0031360  0.7540840  0.2563635

 Al 
  0.2296458  0.5156675  0.2526051

 Al 
  0.2448394  0.7525160  0.0063549

 Al 
  0.0228330  0.9832607  0.5036186

 Al 
  0.0071741  0.2376640  0.7488045

 Al 
  0.2562522  0.9938852  0.7476820

 Al 
  0.2543203  0.2484444  0.5033142

 Al 
  0.9817336  0.4932800  0.4949631

 Al 
  0.0059787  0.7528204  0.7448332

 Al 
  0.2474296  0.5084959  0.7514863

 Al 
  0.2589228  0.7462514  0.4902282

 Al 
  0.4952181  0.4996807  0.9935808

 Al 
  0.4942082  0.7535976  0.2606604

 Al 
  0.7463900  0.5145649  0.2541161

 Al 
  0.7434669  0.7556940  0.9840602

 Al 
  0.5111740  0.0089550  0.4991003

 Al 
  0.5014616  0.2351047  0.7590788

 Al 
  0.7729630  0.9984753  0.7585553

 Al 
  0.7662480  0.2454173  0.5026756

 Al 
  0.5242958  0.5052869  0.4930140

 Al 
  0.5053797  0.7560504  0.7364079

 Al 
  0.7686711  0.4937676  0.7505668

 Al 
  0.7546594  0.7517908  0.5018563

