32 
charge = 0 
 Al 
  0.9910747  0.0016670  0.0053190

 Al 
  0.0088300  0.2270185  0.2460150

 Al 
  0.2512586  0.0056408  0.2302770

 Al 
  0.2290543  0.2465856  0.9853435

 Al 
  0.4996659  0.9884993  0.0030543

 Al 
  0.4633038  0.2701389  0.2457292

 Al 
  0.7312695  0.9926204  0.2471784

 Al 
  0.7302101  0.2726375  0.0237142

 Al 
  0.9988181  0.4905401  0.0186637

 Al 
  0.0035926  0.7537610  0.2566123

 Al 
  0.2294181  0.5154609  0.2529726

 Al 
  0.2452886  0.7519764  0.0064514

 Al 
  0.0230781  0.9835924  0.5040493

 Al 
  0.0073165  0.2371479  0.7497327

 Al 
  0.2558660  0.9943035  0.7469308

 Al 
  0.2548092  0.2486622  0.5030543

 Al 
  0.9811445  0.4933481  0.4947701

 Al 
  0.0060022  0.7533810  0.7446018

 Al 
  0.2471932  0.5079501  0.7518675

 Al 
  0.2589340  0.7464890  0.4903173

 Al 
  0.4956908  0.4992476  0.9936600

 Al 
  0.4940634  0.7537424  0.2603522

 Al 
  0.7462873  0.5148594  0.2539664

 Al 
  0.7434013  0.7561655  0.9837025

 Al 
  0.5112123  0.0092706  0.4982909

 Al 
  0.5011113  0.2348460  0.7589179

 Al 
  0.7730805  0.9984543  0.7588449

 Al 
  0.7663210  0.2449755  0.5029714

 Al 
  0.5245483  0.5053289  0.4930919

 Al 
  0.5048624  0.7562447  0.7360391

 Al 
  0.7682540  0.4936686  0.7514999

 Al 
  0.7550394  0.7517747  0.5020086

