32 
charge = 0 
 Al 
  0.9906614  0.0016088  0.0074749

 Al 
  0.0094228  0.2282263  0.2454445

 Al 
  0.2495136  0.0105873  0.2338733

 Al 
  0.2327744  0.2465064  0.9834427

 Al 
  0.4970695  0.9832484  0.0074043

 Al 
  0.4610019  0.2689842  0.2448641

 Al 
  0.7333647  0.9961351  0.2503181

 Al 
  0.7358039  0.2687850  0.0244270

 Al 
  0.9968591  0.4903693  0.0147233

 Al 
  0.9994233  0.7566012  0.2542052

 Al 
  0.2317719  0.5165078  0.2499864

 Al 
  0.2415177  0.7562794  0.0053289

 Al 
  0.0205992  0.9814700  0.5003267

 Al 
  0.0060133  0.2416947  0.7419880

 Al 
  0.2589278  0.9907245  0.7531409

 Al 
  0.2506262  0.2470769  0.5052992

 Al 
  0.9870786  0.4930647  0.4963282

 Al 
  0.0059638  0.7484097  0.7468368

 Al 
  0.2491758  0.5122383  0.7484617

 Al 
  0.2586592  0.7446327  0.4901045

 Al 
  0.4915858  0.5033686  0.9930697

 Al 
  0.4953913  0.7524615  0.2622185

 Al 
  0.7472415  0.5123509  0.2546483

 Al 
  0.7442231  0.7517969  0.9872086

 Al 
  0.5105960  0.0066333  0.5049218

 Al 
  0.5041681  0.2373571  0.7600255

 Al 
  0.7713343  0.9987959  0.7559613

 Al 
  0.7652517  0.2481239  0.5002525

 Al 
  0.5216450  0.5045208  0.4931489

 Al 
  0.5090392  0.7544800  0.7393458

 Al 
  0.7711499  0.4946240  0.7443320

 Al 
  0.7521472  0.7523328  0.5008910

