32 
charge = 0 
 Al 
  0.9915512  0.0008118  0.0033563

 Al 
  0.0073041  0.2273279  0.2476053

 Al 
  0.2528476  0.0006967  0.2286186

 Al 
  0.2274640  0.2469766  0.9876058

 Al 
  0.5019232  0.9935461  0.9988949

 Al 
  0.4666613  0.2704841  0.2463628

 Al 
  0.7309019  0.9903346  0.2445263

 Al 
  0.7264789  0.2741535  0.0226697

 Al 
  0.9998614  0.4914138  0.0208913

 Al 
  0.0062274  0.7518922  0.2579353

 Al 
  0.2284454  0.5133533  0.2555418

 Al 
  0.2482736  0.7482513  0.0066593

 Al 
  0.0242228  0.9864833  0.5065875

 Al 
  0.0080442  0.2340590  0.7557646

 Al 
  0.2532709  0.9969556  0.7420078

 Al 
  0.2578635  0.2503366  0.5013984

 Al 
  0.9781954  0.4940263  0.4935832

 Al 
  0.0063858  0.7566618  0.7434137

 Al 
  0.2455992  0.5041285  0.7541891

 Al 
  0.2588535  0.7481523  0.4914225

 Al 
  0.4985632  0.4969865  0.9941909

 Al 
  0.4932231  0.7545716  0.2576296

 Al 
  0.7456710  0.5168185  0.2523848

 Al 
  0.7431984  0.7588028  0.9818821

 Al 
  0.5111801  0.0113286  0.4928271

 Al 
  0.4989246  0.2334909  0.7575813

 Al 
  0.7729828  0.9985310  0.7602260

 Al 
  0.7663890  0.2415017  0.5047498

 Al 
  0.5254851  0.5052151  0.4943060

 Al 
  0.5013069  0.7574303  0.7338077

 Al 
  0.7649522  0.4931414  0.7582137

 Al 
  0.7577471  0.7521311  0.5031644

