32 
charge = 0 
 Al 
  0.9931971  0.9970175  0.0006646

 Al 
  0.0025085  0.2299218  0.2526818

 Al 
  0.2555703  0.9913989  0.2286112

 Al 
  0.2290134  0.2480434  0.9941203

 Al 
  0.5055232  0.0035840  0.9904918

 Al 
  0.4756769  0.2693010  0.2471697

 Al 
  0.7340107  0.9879808  0.2394931

 Al 
  0.7232625  0.2717799  0.0200894

 Al 
  0.0000569  0.4946191  0.0223937

 Al 
  0.0086332  0.7505643  0.2587112

 Al 
  0.2296149  0.5065455  0.2604351

 Al 
  0.2532362  0.7417158  0.0046223

 Al 
  0.0236548  0.9943740  0.5082187

 Al 
  0.0076308  0.2311247  0.7646008

 Al 
  0.2497067  0.0006534  0.7350651

 Al 
  0.2615861  0.2541137  0.4989345

 Al 
  0.9771459  0.4956784  0.4928407

 Al 
  0.0081060  0.7594909  0.7433159

 Al 
  0.2428481  0.4971759  0.7570553

 Al 
  0.2582149  0.7510099  0.4951079

 Al 
  0.5013291  0.4964915  0.9949557

 Al 
  0.4925400  0.7550059  0.2503812

 Al 
  0.7447230  0.5201785  0.2473801

 Al 
  0.7436179  0.7607495  0.9814885

 Al 
  0.5097817  0.0141800  0.4834711

 Al 
  0.4960225  0.2331382  0.7540246

 Al 
  0.7684929  0.9998663  0.7598609

 Al 
  0.7649003  0.2339426  0.5071147

 Al 
  0.5241572  0.5035951  0.4992154

 Al 
  0.4952515  0.7590788  0.7312348

 Al 
  0.7575207  0.4928865  0.7706141

 Al 
  0.7624684  0.7547931  0.5056383

