32 
charge = 0 
 Al 
  0.9924793  0.9986374  0.0014170

 Al 
  0.0044243  0.2288092  0.2506633

 Al 
  0.2546718  0.9945820  0.2282375

 Al 
  0.2278452  0.2476573  0.9914608

 Al 
  0.5043834  0.0000099  0.9935016

 Al 
  0.4721524  0.2699792  0.2469358

 Al 
  0.7323981  0.9885563  0.2412937

 Al 
  0.7238243  0.2733602  0.0210670

 Al 
  0.0002116  0.4932986  0.0222068

 Al 
  0.0081097  0.7507178  0.2586493

 Al 
  0.2287882  0.5093127  0.2586939

 Al 
  0.2515606  0.7439520  0.0056903

 Al 
  0.0242389  0.9912690  0.5081419

 Al 
  0.0080689  0.2317224  0.7618286

 Al 
  0.2507128  0.9995075  0.7371405

 Al 
  0.2605688  0.2527004  0.4997302

 Al 
  0.9769974  0.4950931  0.4928370

 Al 
  0.0073734  0.7589661  0.7430585

 Al 
  0.2437949  0.4995953  0.7562336

 Al 
  0.2584959  0.7500606  0.4936525

 Al 
  0.5007661  0.4961487  0.9947193

 Al 
  0.4926501  0.7550356  0.2531892

 Al 
  0.7450522  0.5190250  0.2493664

 Al 
  0.7433939  0.7604562  0.9812336

 Al 
  0.5104673  0.0133446  0.4866628

 Al 
  0.4968912  0.2329439  0.7554440

 Al 
  0.7706537  0.9992290  0.7603807

 Al 
  0.7656057  0.2366739  0.5063759

 Al 
  0.5249777  0.5043092  0.4971697

 Al 
  0.4972798  0.7585553  0.7319155

 Al 
  0.7602643  0.4928828  0.7663668

 Al 
  0.7609005  0.7536075  0.5047374

