32 
charge = 0 
 Al 
  0.9934087  0.9965608  0.0005062

 Al 
  0.0019863  0.2302337  0.2532276

 Al 
  0.2557881  0.9906081  0.2287610

 Al 
  0.2294094  0.2481387  0.9948666

 Al 
  0.5057893  0.0045010  0.9897171

 Al 
  0.4766373  0.2690832  0.2472229

 Al 
  0.7345057  0.9878706  0.2390241

 Al 
  0.7232154  0.2712539  0.0198270

 Al 
  0.9999851  0.4949854  0.0223900

 Al 
  0.0087211  0.7505730  0.2586976

 Al 
  0.2298921  0.5057807  0.2608844

 Al 
  0.2536558  0.7411514  0.0042906

 Al 
  0.0234431  0.9952205  0.5081543

 Al 
  0.0074675  0.2310467  0.7652629

 Al 
  0.2494951  0.0009269  0.7345973

 Al 
  0.2617977  0.2544886  0.4987389

 Al 
  0.9772524  0.4958232  0.4928914

 Al 
  0.0083115  0.7595515  0.7434273

 Al 
  0.2426068  0.4965571  0.7572373

 Al 
  0.2581333  0.7512425  0.4954953

 Al 
  0.5014034  0.4966586  0.9950139

 Al 
  0.4925350  0.7549651  0.2496238

 Al 
  0.7446364  0.5204693  0.2468455

 Al 
  0.7436822  0.7607680  0.9816123

 Al 
  0.5095725  0.0143632  0.4826630

 Al 
  0.4958208  0.2332446  0.7536285

 Al 
  0.7678506  0.0000557  0.7596703

 Al 
  0.7646948  0.2332434  0.5072942

 Al 
  0.5238986  0.5033946  0.4997859

 Al 
  0.4947503  0.7592062  0.7310975

 Al 
  0.7568016  0.4929013  0.7716734

 Al 
  0.7628508  0.7551334  0.5058722

