32 
charge = 0 
 Al 
  0.9923296  0.9989864  0.0016311

 Al 
  0.0048537  0.2285667  0.2502079

 Al 
  0.2544428  0.9953703  0.2282028

 Al 
  0.2276583  0.2475632  0.9908792

 Al 
  0.5040852  0.9991498  0.9942231

 Al 
  0.4713554  0.2701017  0.2468714

 Al 
  0.7320875  0.9887332  0.2417232

 Al 
  0.7240508  0.2736263  0.0212935

 Al 
  0.0002178  0.4930078  0.0221103

 Al 
  0.0079353  0.7508032  0.2586035

 Al 
  0.2286520  0.5099265  0.2582768

 Al 
  0.2511460  0.7445015  0.0058933

 Al 
  0.0243206  0.9905673  0.5080429

 Al 
  0.0081271  0.2319378  0.7611084

 Al 
  0.2509987  0.9992092  0.7377011

 Al 
  0.2602767  0.2523712  0.4999332

 Al 
  0.9770346  0.4949495  0.4928803

 Al 
  0.0072150  0.7587669  0.7430412

 Al 
  0.2440250  0.5001832  0.7560071

 Al 
  0.2585553  0.7498206  0.4933209

 Al 
  0.5005631  0.4961450  0.9946574

 Al 
  0.4926984  0.7550134  0.2538303

 Al 
  0.7451302  0.5187429  0.2498168

 Al 
  0.7433493  0.7603262  0.9812311

 Al 
  0.5106010  0.0131144  0.4874474

 Al 
  0.4971239  0.2329489  0.7557584

 Al 
  0.7710881  0.9991003  0.7604475

 Al 
  0.7657505  0.2373298  0.5061853

 Al 
  0.5251262  0.5044627  0.4967217

 Al 
  0.4977872  0.7584204  0.7321160

 Al 
  0.7609104  0.4928964  0.7653161

 Al 
  0.7605044  0.7533575  0.5045233

