32 
charge = 0 
 Al 
  0.9955274  0.9924484  0.9997574

 Al 
  0.9974877  0.2330244  0.2577657

 Al 
  0.2572905  0.9849017  0.2305950

 Al 
  0.2337978  0.2487971  0.0016843

 Al 
  0.5073981  0.0115551  0.9837322

 Al 
  0.4849698  0.2667776  0.2475830

 Al 
  0.7394770  0.9875192  0.2352606

 Al 
  0.7242958  0.2654671  0.0175994

 Al 
  0.9990953  0.4981882  0.0216549

 Al 
  0.0088560  0.7512487  0.2582050

 Al 
  0.2329563  0.4991325  0.2643854

 Al 
  0.2568115  0.7368583  0.0008923

 Al 
  0.0209210  0.0024925  0.5064564

 Al 
  0.0054255  0.2315529  0.7698876

 Al 
  0.2485496  0.0028724  0.7319105

 Al 
  0.2627729  0.2575429  0.4973120

 Al 
  0.9789169  0.4968281  0.4940671

 Al 
  0.0101146  0.7589996  0.7449297

 Al 
  0.2407034  0.4916910  0.7583090

 Al 
  0.2573350  0.7528501  0.4986053

 Al 
  0.5009282  0.4989703  0.9954792

 Al 
  0.4928729  0.7541396  0.2432132

 Al 
  0.7439112  0.5226833  0.2424670

 Al 
  0.7442478  0.7601988  0.9833387

 Al 
  0.5074179  0.0152765  0.4764306

 Al 
  0.4945263  0.2349624  0.7499827

 Al 
  0.7616801  0.0018279  0.7574514

 Al 
  0.7627345  0.2279689  0.5085874

 Al 
  0.5213207  0.5016707  0.5048215

 Al 
  0.4911428  0.7601369  0.7306099

 Al 
  0.7510297  0.4931959  0.7793438

 Al 
  0.7654893  0.7582199  0.5076816

