32 
charge = 0 
 Al 
  0.9952280  0.9929793  0.9998008

 Al 
  0.9980533  0.2326593  0.2572150

 Al 
  0.2571358  0.9855180  0.2303203

 Al 
  0.2331605  0.2487315  0.0007859

 Al 
  0.5072620  0.0107470  0.9844203

 Al 
  0.4839067  0.2671081  0.2475447

 Al 
  0.7387902  0.9875130  0.2357111

 Al 
  0.7240236  0.2663074  0.0178815

 Al 
  0.9992253  0.4977811  0.0218096

 Al 
  0.0088882  0.7511163  0.2582979

 Al 
  0.2325095  0.4999715  0.2639795

 Al 
  0.2564551  0.7373509  0.0013700

 Al 
  0.0212997  0.0015779  0.5067695

 Al 
  0.0057411  0.2313809  0.7693901

 Al 
  0.2485917  0.0026570  0.7321296

 Al 
  0.2627271  0.2571766  0.4974692

 Al 
  0.9786496  0.4967254  0.4938481

 Al 
  0.0098869  0.7591629  0.7446921

 Al 
  0.2409311  0.4922677  0.7582162

 Al 
  0.2574477  0.7526843  0.4982414

 Al 
  0.5010891  0.4986102  0.9954185

 Al 
  0.4927924  0.7542869  0.2440114

 Al 
  0.7440015  0.5224308  0.2429892

 Al 
  0.7441785  0.7603299  0.9830664

 Al 
  0.5077236  0.0152257  0.4771583

 Al 
  0.4946525  0.2346666  0.7504715

 Al 
  0.7625105  0.0015940  0.7577781

 Al 
  0.7629994  0.2285568  0.5084439

 Al 
  0.5216722  0.5018848  0.5041768

 Al 
  0.4915326  0.7600342  0.7306062

 Al 
  0.7517177  0.4931439  0.7785134

 Al 
  0.7652183  0.7578202  0.5074749

