32 
charge = 0 
 Al 
  0.9991387  0.9872779  0.9999171

 Al 
  0.9920945  0.2369907  0.2624536

 Al 
  0.2581951  0.9807200  0.2337421

 Al 
  0.2410586  0.2490471  0.0110267

 Al 
  0.5073474  0.0177442  0.9784454

 Al 
  0.4956351  0.2629313  0.2479679

 Al 
  0.7468603  0.9883050  0.2314465

 Al 
  0.7293129  0.2558215  0.0146268

 Al 
  0.9977934  0.5022202  0.0192503

 Al 
  0.0079489  0.7529541  0.2568153

 Al 
  0.2381751  0.4913321  0.2674905

 Al 
  0.2594698  0.7329662  0.9955510

 Al 
  0.0164583  0.0111269  0.5021385

 Al 
  0.0014158  0.2349191  0.7736473

 Al 
  0.2492711  0.0047176  0.7317039

 Al 
  0.2619796  0.2605341  0.4961871

 Al 
  0.9821717  0.4973776  0.4974420

 Al 
  0.0121690  0.7560084  0.7480100

 Al 
  0.2386689  0.4866145  0.7586147

 Al 
  0.2559836  0.7537684  0.5014566

 Al 
  0.4977922  0.5031459  0.9962378

 Al 
  0.4943852  0.7520618  0.2356950

 Al 
  0.7430523  0.5245669  0.2382543

 Al 
  0.7448282  0.7581865  0.9865861

 Al 
  0.5038822  0.0145203  0.4701846

 Al 
  0.4938407  0.2393607  0.7445671

 Al 
  0.7530506  0.0040543  0.7537424

 Al 
  0.7596876  0.2239580  0.5096678

 Al 
  0.5176786  0.4998069  0.5111529

 Al 
  0.4885897  0.7608646  0.7317942

 Al 
  0.7450819  0.4939669  0.7849389

 Al 
  0.7669806  0.7621306  0.5092434

