32 
charge = 0 
 Al 
  0.9977749  0.9889684  0.9997612

 Al 
  0.9938481  0.2355589  0.2610861

 Al 
  0.2580318  0.9816890  0.2326197

 Al 
  0.2384436  0.2490570  0.0078115

 Al 
  0.5076952  0.0160995  0.9798537

 Al 
  0.4920177  0.2643409  0.2478293

 Al 
  0.7442911  0.9878892  0.2325640

 Al 
  0.7271138  0.2593040  0.0156812

 Al 
  0.9982080  0.5008712  0.0202379

 Al 
  0.0083622  0.7523303  0.2573808

 Al 
  0.2362593  0.4937936  0.2666799

 Al 
  0.2587867  0.7340416  0.9974580

 Al 
  0.0180857  0.0083511  0.5038105

 Al 
  0.0029491  0.2334389  0.7726152

 Al 
  0.2488033  0.0041434  0.7313549

 Al 
  0.2625192  0.2597037  0.4964593

 Al 
  0.9809700  0.4972972  0.4960423

 Al 
  0.0115440  0.7572991  0.7468244

 Al 
  0.2393050  0.4881788  0.7586382

 Al 
  0.2564960  0.7536285  0.5006819

 Al 
  0.4991696  0.5016670  0.9959396

 Al 
  0.4937157  0.7528773  0.2381169

 Al 
  0.7433271  0.5240904  0.2394213

 Al 
  0.7446574  0.7589958  0.9854054

 Al 
  0.5051705  0.0150710  0.4720670

 Al 
  0.4939471  0.2375526  0.7465150

 Al 
  0.7559997  0.0033488  0.7550703

 Al 
  0.7608188  0.2248663  0.5093857

 Al 
  0.5189199  0.5003626  0.5090565

 Al 
  0.4891441  0.7606901  0.7311371

 Al 
  0.7468727  0.4936501  0.7836592

 Al 
  0.7667541  0.7608448  0.5088374

