32 
charge = 0 
 Al 
  0.9981115  0.9885241  0.9997933

 Al 
  0.9933877  0.2359153  0.2614660

 Al 
  0.2580887  0.9813908  0.2329055

 Al 
  0.2391045  0.2490656  0.0086369

 Al 
  0.5076419  0.0165747  0.9794478

 Al 
  0.4929496  0.2639882  0.2478640

 Al 
  0.7449495  0.9879820  0.2322546

 Al 
  0.7276261  0.2584241  0.0154176

 Al 
  0.9980966  0.5012202  0.0200002

 Al 
  0.0082657  0.7524900  0.2572447

 Al 
  0.2367395  0.4931352  0.2669175

 Al 
  0.2589884  0.7337360  0.9969742

 Al 
  0.0176761  0.0090849  0.5033959

 Al 
  0.0025717  0.2337867  0.7729048

 Al 
  0.2489023  0.0042943  0.7314019

 Al 
  0.2624090  0.2599401  0.4963764

 Al 
  0.9812720  0.4973293  0.4963752

 Al 
  0.0117148  0.7569947  0.7471152

 Al 
  0.2391342  0.4877593  0.7586456

 Al 
  0.2563697  0.7536842  0.5009034

 Al 
  0.4988454  0.5020469  0.9960113

 Al 
  0.4938728  0.7526768  0.2374783

 Al 
  0.7432540  0.5242327  0.2390896

 Al 
  0.7447045  0.7587991  0.9857049

 Al 
  0.5048463  0.0149621  0.4715559

 Al 
  0.4939062  0.2379845  0.7460249

 Al 
  0.7552386  0.0035382  0.7547337

 Al 
  0.7605391  0.2245805  0.5094686

 Al 
  0.5185993  0.5002091  0.5096035

 Al 
  0.4889659  0.7607433  0.7312782

 Al 
  0.7463863  0.4937256  0.7840565

 Al 
  0.7668432  0.7611814  0.5089562

