32 
charge = 0 
 Al 
  0.9967861  0.9903903  0.9997030

 Al 
  0.9953245  0.2344810  0.2597965

 Al 
  0.2577880  0.9828214  0.2317484

 Al 
  0.2364413  0.2489889  0.0052473

 Al 
  0.5077100  0.0144089  0.9812980

 Al 
  0.4891045  0.2653990  0.2477278

 Al 
  0.7422566  0.9876665  0.2336097

 Al 
  0.7257289  0.2619660  0.0164880

 Al 
  0.9985719  0.4997686  0.0209061

 Al 
  0.0086209  0.7518489  0.2577645

 Al 
  0.2348238  0.4959383  0.2658259

 Al 
  0.2580602  0.7351047  0.9989295

 Al 
  0.0193208  0.0059824  0.5050146

 Al 
  0.0040530  0.2325009  0.7716041

 Al 
  0.2485892  0.0036471  0.7313932

 Al 
  0.2627457  0.2588783  0.4967675

 Al 
  0.9800691  0.4971511  0.4951116

 Al 
  0.0109759  0.7581320  0.7459742

 Al 
  0.2398594  0.4895624  0.7585615

 Al 
  0.2568648  0.7533798  0.4999035

 Al 
  0.5000433  0.5005025  0.9957341

 Al 
  0.4932986  0.7534565  0.2401738

 Al 
  0.7435634  0.5235706  0.2405772

 Al 
  0.7444990  0.7595589  0.9845032

 Al 
  0.5061433  0.0152789  0.4737699

 Al 
  0.4941302  0.2363435  0.7479989

 Al 
  0.7583733  0.0027313  0.7560950

 Al 
  0.7616467  0.2259641  0.5090911

 Al 
  0.5199210  0.5008750  0.5073202

 Al 
  0.4898384  0.7604921  0.7308066

 Al 
  0.7484964  0.4934372  0.7821432

 Al 
  0.7663507  0.7597718  0.5084117

