32 
charge = 0 
 Al 
  0.0021113  0.9845614  0.0003317

 Al 
  0.9891726  0.2400933  0.2639993

 Al 
  0.2580058  0.9803661  0.2358188

 Al 
  0.2461351  0.2486919  0.0169200

 Al 
  0.5055356  0.0191971  0.9771954

 Al 
  0.5023514  0.2601047  0.2482971

 Al 
  0.7516014  0.9894770  0.2301012

 Al 
  0.7349896  0.2490842  0.0123917

 Al 
  0.9972526  0.5045988  0.0169855

 Al 
  0.0069811  0.7540270  0.2555294

 Al 
  0.2420982  0.4876937  0.2680177

 Al 
  0.2598993  0.7319217  0.9919274

 Al 
  0.0133149  0.0155017  0.4987662

 Al 
  0.9981152  0.2385352  0.7749542

 Al 
  0.2506373  0.0057287  0.7335503

 Al 
  0.2601554  0.2612321  0.4960943

 Al 
  0.9845676  0.4972291  0.5008131

 Al 
  0.0129573  0.7528922  0.7505334

 Al 
  0.2376912  0.4842223  0.7582360

 Al 
  0.2548290  0.7534528  0.5022214

 Al 
  0.4944421  0.5056284  0.9969407

 Al 
  0.4960522  0.7503812  0.2317460

 Al 
  0.7426563  0.5247104  0.2371331

 Al 
  0.7450869  0.7565059  0.9888050

 Al 
  0.5013217  0.0124326  0.4675660

 Al 
  0.4940151  0.2436600  0.7407282

 Al 
  0.7477736  0.0050245  0.7512215

 Al 
  0.7571543  0.2239691  0.5098399

 Al 
  0.5154510  0.4991275  0.5147022

 Al 
  0.4886293  0.7609425  0.7338065

 Al 
  0.7425424  0.4947057  0.7852755

 Al 
  0.7664744  0.7643013  0.5095552

