32 
charge = 0 
 Al 
  0.0009443  0.9854846  0.0001733

 Al 
  0.9901973  0.2388619  0.2636033

 Al 
  0.2581555  0.9802733  0.2350601

 Al 
  0.2442367  0.2488775  0.0147678

 Al 
  0.5063932  0.0189149  0.9774392

 Al 
  0.4998626  0.2611740  0.2481622

 Al 
  0.7498639  0.9889845  0.2304750

 Al 
  0.7326382  0.2515940  0.0132716

 Al 
  0.9974098  0.5037449  0.0178828

 Al 
  0.0073623  0.7536582  0.2560356

 Al 
  0.2405920  0.4888706  0.2679880

 Al 
  0.2598807  0.7321444  0.9932639

 Al 
  0.0144807  0.0140253  0.5000309

 Al 
  0.9994023  0.2370761  0.7745557

 Al 
  0.2500705  0.0053574  0.7326902

 Al 
  0.2609561  0.2611244  0.4960596

 Al 
  0.9836617  0.4973256  0.4994480

 Al 
  0.0127345  0.7541458  0.7495607

 Al 
  0.2380179  0.4850292  0.7584229

 Al 
  0.2552906  0.7536595  0.5020457

 Al 
  0.4957910  0.5047869  0.9966586

 Al 
  0.4953789  0.7510136  0.2331122

 Al 
  0.7427788  0.5247933  0.2373719

 Al 
  0.7449953  0.7571383  0.9879932

 Al 
  0.5022883  0.0133805  0.4683852

 Al 
  0.4938951  0.2419311  0.7421675

 Al 
  0.7496807  0.0047312  0.7521534

 Al 
  0.7581692  0.2236820  0.5098386

 Al 
  0.5162603  0.4993169  0.5134560

 Al 
  0.4884449  0.7609524  0.7329427

 Al 
  0.7433580  0.4944124  0.7854710

 Al 
  0.7668073  0.7635377  0.5095119

