32 
charge = 0 
 Al 
  0.0029392  0.9840057  0.0004319

 Al 
  0.9885241  0.2409868  0.2641379

 Al 
  0.2578499  0.9805690  0.2363187

 Al 
  0.2474147  0.2485323  0.0183345

 Al 
  0.5048352  0.0192243  0.9771744

 Al 
  0.5040307  0.2593758  0.2483986

 Al 
  0.7527523  0.9898421  0.2299366

 Al 
  0.7367321  0.2473999  0.0117568

 Al 
  0.9971784  0.5051507  0.0163470

 Al 
  0.0067150  0.7542486  0.2551755

 Al 
  0.2431451  0.4870266  0.2679261

 Al 
  0.2598163  0.7318895  0.9910425

 Al 
  0.0125402  0.0163866  0.4979234

 Al 
  0.9972142  0.2395834  0.7751720

 Al 
  0.2510457  0.0059824  0.7342347

 Al 
  0.2595391  0.2611938  0.4961636

 Al 
  0.9851839  0.4971425  0.5018044

 Al 
  0.0130526  0.7519925  0.7512017

 Al 
  0.2374981  0.4837298  0.7580825

 Al 
  0.2544948  0.7532573  0.5022709

 Al 
  0.4934780  0.5061197  0.9971412

 Al 
  0.4965323  0.7499629  0.2308957

 Al 
  0.7425944  0.5245495  0.2370947

 Al 
  0.7451488  0.7560851  0.9893372

 Al 
  0.5006633  0.0116752  0.4671217

 Al 
  0.4941278  0.2449025  0.7397629

 Al 
  0.7465286  0.0051718  0.7506015

 Al 
  0.7564130  0.2243565  0.5097953

 Al 
  0.5149163  0.4990471  0.5154844

 Al 
  0.4888644  0.7609104  0.7344599

 Al 
  0.7420746  0.4949124  0.7849376

 Al 
  0.7661564  0.7647852  0.5095354

