32 
charge = 0 
 Al 
  0.0089315  0.9817757  0.0006646

 Al 
  0.9850886  0.2481647  0.2626306

 Al 
  0.2558995  0.9841023  0.2393211

 Al 
  0.2554713  0.2469655  0.0265309

 Al 
  0.4984394  0.0168482  0.9793884

 Al 
  0.5151119  0.2546569  0.2492562

 Al 
  0.7597322  0.9926773  0.2305393

 Al 
  0.7505247  0.2369338  0.0067942

 Al 
  0.9972303  0.5081308  0.0117903

 Al 
  0.0049428  0.7549342  0.2528625

 Al 
  0.2505383  0.4851121  0.2654621

 Al 
  0.2576283  0.7339835  0.9859128

 Al 
  0.0078511  0.0200200  0.4930511

 Al 
  0.9909683  0.2471709  0.7757982

 Al 
  0.2537931  0.0077768  0.7402604

 Al 
  0.2543674  0.2588213  0.4972947

 Al 
  0.9892171  0.4963665  0.5093226

 Al 
  0.0124771  0.7454878  0.7554440

 Al 
  0.2367915  0.4813153  0.7567571

 Al 
  0.2519009  0.7510903  0.5015272

 Al 
  0.4867271  0.5073684  0.9984543

 Al 
  0.4998131  0.7477439  0.2267549

 Al 
  0.7427318  0.5213566  0.2389919

 Al 
  0.7457044  0.7537300  0.9923593

 Al 
  0.4964123  0.0047015  0.4663420

 Al 
  0.4952812  0.2537857  0.7341716

 Al 
  0.7392654  0.0052089  0.7468182

 Al 
  0.7505408  0.2303091  0.5086035

 Al 
  0.5115118  0.4995953  0.5191822

 Al 
  0.4922170  0.7602285  0.7397654

 Al 
  0.7403284  0.4964284  0.7794540

 Al 
  0.7625600  0.7672095  0.5084934

