32 
charge = 0 
 Al 
  0.0047374  0.9830343  0.0006015

 Al 
  0.9872902  0.2430028  0.2640983

 Al 
  0.2573957  0.9813140  0.2373137

 Al 
  0.2500371  0.2481226  0.0211425

 Al 
  0.5031125  0.0189038  0.9774640

 Al 
  0.5075120  0.2578697  0.2486337

 Al 
  0.7550691  0.9906688  0.2298215

 Al 
  0.7406948  0.2439731  0.0103398

 Al 
  0.9971016  0.5062175  0.0149609

 Al 
  0.0061556  0.7546173  0.2544280

 Al 
  0.2453851  0.4859735  0.2674670

 Al 
  0.2594104  0.7321284  0.9892827

 Al 
  0.0109846  0.0179323  0.4962403

 Al 
  0.9952824  0.2418804  0.7755136

 Al 
  0.2519281  0.0065182  0.7358844

 Al 
  0.2580912  0.2608299  0.4964098

 Al 
  0.9864660  0.4969222  0.5040109

 Al 
  0.0131033  0.7500248  0.7525915

 Al 
  0.2371690  0.4828276  0.7577137

 Al 
  0.2537473  0.7527251  0.5022152

 Al 
  0.4913878  0.5068982  0.9975682

 Al 
  0.4975670  0.7491424  0.2293216

 Al 
  0.7425301  0.5239406  0.2373137

 Al 
  0.7452898  0.7552584  0.9903841

 Al 
  0.4993008  0.0098250  0.4664856

 Al 
  0.4944285  0.2476165  0.7378249

 Al 
  0.7440696  0.0053500  0.7493503

 Al 
  0.7547399  0.2256312  0.5095837

 Al 
  0.5138335  0.4990112  0.5169336

 Al 
  0.4896094  0.7607829  0.7359698

 Al 
  0.7412950  0.4953616  0.7837632

 Al 
  0.7652789  0.7656972  0.5093721

