32 
charge = 0 
 Al 
  0.0062249  0.9824415  0.0006807

 Al 
  0.9864153  0.2447552  0.2637704

 Al 
  0.2569242  0.9821667  0.2380662

 Al 
  0.2520655  0.2477365  0.0232241

 Al 
  0.5015333  0.0183444  0.9779776

 Al 
  0.5102693  0.2566878  0.2488441

 Al 
  0.7568264  0.9913742  0.2299342

 Al 
  0.7441092  0.2413420  0.0091196

 Al 
  0.9971078  0.5069811  0.0138236

 Al 
  0.0057114  0.7548141  0.2538414

 Al 
  0.2472167  0.4854438  0.2668779

 Al 
  0.2588894  0.7325986  0.9879783

 Al 
  0.0098077  0.0188852  0.4949953

 Al 
  0.9937181  0.2437763  0.7756881

 Al 
  0.2526273  0.0069601  0.7373694

 Al 
  0.2568128  0.2602817  0.4966870

 Al 
  0.9874759  0.4967254  0.5058747

 Al 
  0.0129956  0.7484011  0.7536681

 Al 
  0.2369784  0.4822125  0.7573845

 Al 
  0.2531088  0.7521979  0.5020407

 Al 
  0.4896899  0.5072657  0.9979036

 Al 
  0.4983949  0.7485644  0.2282560

 Al 
  0.7425462  0.5231956  0.2377494

 Al 
  0.7454198  0.7546569  0.9911514

 Al 
  0.4982340  0.0081196  0.4662430

 Al 
  0.4947144  0.2498453  0.7363893

 Al 
  0.7422380  0.0053747  0.7483998

 Al 
  0.7532932  0.2270531  0.5093052

 Al 
  0.5129907  0.4991139  0.5179013

 Al 
  0.4904176  0.7606257  0.7372828

 Al 
  0.7408396  0.4957329  0.7824415

 Al 
  0.7644052  0.7663259  0.5091332

