32 
charge = 0 
 Al 
  0.0042684  0.9832583  0.0005643

 Al 
  0.9875910  0.2424657  0.2641491

 Al 
  0.2575269  0.9810863  0.2370650

 Al 
  0.2493726  0.2482365  0.0204421

 Al 
  0.5035840  0.0190300  0.9773501

 Al 
  0.5066222  0.2582533  0.2485706

 Al 
  0.7544874  0.9904497  0.2298228

 Al 
  0.7396416  0.2448394  0.0107148

 Al 
  0.9971115  0.5059552  0.0153223

 Al 
  0.0062992  0.7545344  0.2546198

 Al 
  0.2448047  0.4861999  0.2676155

 Al 
  0.2595416  0.7320294  0.9897208

 Al 
  0.0113744  0.0175746  0.4966598

 Al 
  0.9957824  0.2412814  0.7754393

 Al 
  0.2517004  0.0063796  0.7354364

 Al 
  0.2584810  0.2609586  0.4963343

 Al 
  0.9861381  0.4969828  0.5034293

 Al 
  0.0131095  0.7505383  0.7522388

 Al 
  0.2372432  0.4830442  0.7578140

 Al 
  0.2539453  0.7528761  0.5022474

 Al 
  0.4919299  0.5067323  0.9974580

 Al 
  0.4972996  0.7493441  0.2297003

 Al 
  0.7425387  0.5241312  0.2372209

 Al 
  0.7452515  0.7554626  0.9901243

 Al 
  0.4996473  0.0103312  0.4666118

 Al 
  0.4943443  0.2469086  0.7383087

 Al 
  0.7446822  0.0053203  0.7496646

 Al 
  0.7551841  0.2252475  0.5096530

 Al 
  0.5141070  0.4990025  0.5165858

 Al 
  0.4893879  0.7608237  0.7355663

 Al 
  0.7414720  0.4952440  0.7841196

 Al 
  0.7655302  0.7654770  0.5094290

