32 
charge = 0 
 Al 
  0.0072793  0.9821222  0.0006992

 Al 
  0.9858608  0.2460485  0.2634028

 Al 
  0.2565479  0.9828684  0.2385699

 Al 
  0.2534342  0.2474444  0.0245829

 Al 
  0.5003552  0.0178259  0.9784615

 Al 
  0.5121776  0.2558809  0.2490013

 Al 
  0.7579996  0.9918804  0.2301124

 Al 
  0.7465843  0.2395711  0.0082298

 Al 
  0.9971400  0.5074650  0.0130241

 Al 
  0.0054057  0.7548970  0.2534466

 Al 
  0.2485112  0.4852247  0.2663717

 Al 
  0.2584402  0.7330615  0.9871281

 Al 
  0.0090206  0.0194124  0.4941896

 Al 
  0.9926291  0.2451092  0.7757611

 Al 
  0.2531001  0.0072756  0.7384709

 Al 
  0.2558759  0.2597780  0.4969110

 Al 
  0.9881677  0.4965831  0.5072113

 Al 
  0.0128422  0.7472576  0.7543896

 Al 
  0.2368818  0.4818326  0.7571432

 Al 
  0.2526447  0.7517870  0.5018662

 Al 
  0.4885142  0.5073895  0.9981288

 Al 
  0.4989629  0.7482092  0.2276088

 Al 
  0.7425944  0.5225496  0.2381714

 Al 
  0.7455225  0.7542721  0.9916489

 Al 
  0.4975063  0.0068326  0.4662034

 Al 
  0.4949309  0.2514022  0.7354636

 Al 
  0.7410301  0.0053388  0.7477637

 Al 
  0.7522375  0.2282288  0.5090602

 Al 
  0.5124103  0.4992550  0.5184731

 Al 
  0.4910735  0.7604883  0.7382382

 Al 
  0.7405970  0.4959990  0.7813561

 Al 
  0.7637209  0.7667083  0.5089142

