32 
charge = 0 
 Al 
  0.0106158  0.9816049  0.0005396

 Al 
  0.9844166  0.2504430  0.2616207

 Al 
  0.2551730  0.9855044  0.2400562

 Al 
  0.2574167  0.2464606  0.0282969

 Al 
  0.4964272  0.0156737  0.9805294

 Al 
  0.5180498  0.2534528  0.2495223

 Al 
  0.7613794  0.9934879  0.2311532

 Al 
  0.7545938  0.2344018  0.0052832

 Al 
  0.9973640  0.5086976  0.0105626

 Al 
  0.0044862  0.7548488  0.2523180

 Al 
  0.2526150  0.4852631  0.2644089

 Al 
  0.2566878  0.7351554  0.9848163

 Al 
  0.0067163  0.0203901  0.4920437

 Al 
  0.9893421  0.2492315  0.7757277

 Al 
  0.2544292  0.0083003  0.7421551

 Al 
  0.2527895  0.2576494  0.4977117

 Al 
  0.9902492  0.4961574  0.5114895

 Al 
  0.0119437  0.7437181  0.7564180

 Al 
  0.2367754  0.4808772  0.7563586

 Al 
  0.2511237  0.7503181  0.5011200

 Al 
  0.4849896  0.5070888  0.9987476

 Al 
  0.5006237  0.7473875  0.2260730

 Al 
  0.7429496  0.5199235  0.2400067

 Al 
  0.7459235  0.7532474  0.9930041

 Al 
  0.4953468  0.0023996  0.4667195

 Al 
  0.4956463  0.2561222  0.7330664

 Al 
  0.7376046  0.0049973  0.7459061

 Al 
  0.7487649  0.2327100  0.5080565

 Al 
  0.5105923  0.5000978  0.5196698

 Al 
  0.4935065  0.7599017  0.7413544

 Al 
  0.7401762  0.4968875  0.7772932

 Al 
  0.7612816  0.7675957  0.5079699

