32 
charge = 0 
 Al 
  0.0100552  0.9816408  0.0005916

 Al 
  0.9846270  0.2496696  0.2619808

 Al 
  0.2554230  0.9850230  0.2398149

 Al 
  0.2567843  0.2466301  0.0277338

 Al 
  0.4971016  0.0160834  0.9801285

 Al 
  0.5170759  0.2538501  0.2494332

 Al 
  0.7608448  0.9932182  0.2309292

 Al 
  0.7532350  0.2352285  0.0057906

 Al 
  0.9973157  0.5085219  0.0109673

 Al 
  0.0046371  0.7548908  0.2524937

 Al 
  0.2519219  0.4851839  0.2647715

 Al 
  0.2570120  0.7347396  0.9851653

 Al 
  0.0070888  0.0202948  0.4923618

 Al 
  0.9898743  0.2485508  0.7757648

 Al 
  0.2542263  0.0081246  0.7415177

 Al 
  0.2533191  0.2580615  0.4975707

 Al 
  0.9899102  0.4962254  0.5107668

 Al 
  0.0121405  0.7443035  0.7561061

 Al 
  0.2367717  0.4810133  0.7564923

 Al 
  0.2513848  0.7505817  0.5012611

 Al 
  0.4855576  0.5072113  0.9986548

 Al 
  0.5003614  0.7474927  0.2262796

 Al 
  0.7428679  0.5204247  0.2396503

 Al 
  0.7458467  0.7534008  0.9927986

 Al 
  0.4956958  0.0031805  0.4665672

 Al 
  0.4955250  0.2553562  0.7334092

 Al 
  0.7381429  0.0050752  0.7462044

 Al 
  0.7493602  0.2318808  0.5082471

 Al 
  0.5109005  0.4999121  0.5195349

 Al 
  0.4930647  0.7600181  0.7408222

 Al 
  0.7402134  0.4967316  0.7780357

 Al 
  0.7617172  0.7674818  0.5081555

