32 
charge = 0 
 Al 
  0.0142740  0.9819167  0.9999010

 Al 
  0.9834055  0.2559601  0.2586617

 Al 
  0.2533538  0.9890228  0.2416440

 Al 
  0.2611517  0.2453765  0.0312893

 Al 
  0.4919893  0.0125192  0.9837248

 Al 
  0.5243255  0.2509331  0.2500644

 Al 
  0.7645797  0.9952304  0.2331543

 Al 
  0.7634845  0.2294070  0.0018415

 Al 
  0.9977761  0.5094933  0.0080602

 Al 
  0.0035332  0.7541594  0.2513217

 Al 
  0.2572187  0.4865341  0.2617445

 Al 
  0.2543166  0.7385476  0.9829773

 Al 
  0.0043315  0.0203257  0.4904336

 Al 
  0.9861678  0.2535370  0.7750050

 Al 
  0.2554997  0.0095045  0.7465002

 Al 
  0.2492055  0.2544181  0.4986548

 Al 
  0.9923692  0.4957651  0.5162331

 Al 
  0.0100898  0.7400574  0.7580986

 Al 
  0.2370551  0.4802176  0.7554874

 Al 
  0.2493441  0.7484134  0.5000854

 Al 
  0.4815937  0.5055270  0.9991968

 Al 
  0.5021521  0.7470583  0.2252735

 Al 
  0.7437553  0.5159831  0.2428221

 Al 
  0.7465819  0.7524207  0.9941587

 Al 
  0.4931996  0.9969197  0.4684434

 Al 
  0.4964358  0.2607420  0.7315863

 Al 
  0.7344315  0.0043278  0.7440572

 Al 
  0.7447899  0.2389560  0.5066036

 Al 
  0.5084526  0.5018848  0.5197626

 Al 
  0.4967081  0.7589104  0.7449359

 Al 
  0.7402455  0.4980273  0.7718306

 Al 
  0.7581815  0.7679038  0.5064452

