32 
charge = 0 
 Al 
  0.0137951  0.9818140  0.0000198

 Al 
  0.9834959  0.2551792  0.2591146

 Al 
  0.2536149  0.9885216  0.2414286

 Al 
  0.2607049  0.2455138  0.0309737

 Al 
  0.4925684  0.0129857  0.9832409

 Al 
  0.5235075  0.2512598  0.2500012

 Al 
  0.7641887  0.9950040  0.2328313

 Al 
  0.7623224  0.2300233  0.0023056

 Al 
  0.9977117  0.5094290  0.0083696

 Al 
  0.0036570  0.7542981  0.2514356

 Al 
  0.2566024  0.4862853  0.2621232

 Al 
  0.2546520  0.7380278  0.9831692

 Al 
  0.0046446  0.0204086  0.4905933

 Al 
  0.9865452  0.2529875  0.7751646

 Al 
  0.2553883  0.0093399  0.7459123

 Al 
  0.2496906  0.2549007  0.4985310

 Al 
  0.9921006  0.4958109  0.5156081

 Al 
  0.0104005  0.7405178  0.7579204

 Al 
  0.2369870  0.4802794  0.7556024

 Al 
  0.2495867  0.7486845  0.5002302

 Al 
  0.4820021  0.5058165  0.9991572

 Al 
  0.5019727  0.7470620  0.2253181

 Al 
  0.7436179  0.5165747  0.2424001

 Al 
  0.7464754  0.7525123  0.9940250

 Al 
  0.4934694  0.9976820  0.4681340

 Al 
  0.4963331  0.2601827  0.7316903

 Al 
  0.7348139  0.0044292  0.7442911

 Al 
  0.7453183  0.2380427  0.5068153

 Al 
  0.5087545  0.5015816  0.5198431

 Al 
  0.4962564  0.7590701  0.7444520

 Al 
  0.7402035  0.4978615  0.7726152

 Al 
  0.7586159  0.7679150  0.5066828

