32 
charge = 0 
 Al 
  0.0117210  0.9815937  0.0004047

 Al 
  0.9840404  0.2520160  0.2608410

 Al 
  0.2546619  0.9864957  0.2405302

 Al 
  0.2586184  0.2461277  0.0293315

 Al 
  0.4950894  0.0148111  0.9813833

 Al 
  0.5199557  0.2526818  0.2496956

 Al 
  0.7623991  0.9940164  0.2316544

 Al 
  0.7572781  0.2328226  0.0042671

 Al 
  0.9974704  0.5090057  0.0097792

 Al 
  0.0041941  0.7547213  0.2519888

 Al 
  0.2539874  0.4855057  0.2636577

 Al 
  0.2560170  0.7360514  0.9841765

 Al 
  0.0059910  0.0205002  0.4914682

 Al 
  0.9883224  0.2505581  0.7756089

 Al 
  0.2548017  0.0086530  0.7434335

 Al 
  0.2517313  0.2567769  0.4979939

 Al 
  0.9909076  0.4960299  0.5129177

 Al 
  0.0114957  0.7425821  0.7569959

 Al 
  0.2368088  0.4806346  0.7560962

 Al 
  0.2506015  0.7497785  0.5008267

 Al 
  0.4839030  0.5067633  0.9989134

 Al 
  0.5011225  0.7472192  0.2257277

 Al 
  0.7431402  0.5188605  0.2407653

 Al 
  0.7460905  0.7529652  0.9933877

 Al 
  0.4946760  0.0008193  0.4670994

 Al 
  0.4958863  0.2575937  0.7324712

 Al 
  0.7365861  0.0048228  0.7453307

 Al 
  0.7475793  0.2344377  0.5076556

 Al 
  0.5099760  0.5005247  0.5198517

 Al 
  0.4944149  0.7596493  0.7424150

 Al 
  0.7401379  0.4972068  0.7757599

 Al 
  0.7603943  0.7677726  0.5075714

