32 
charge = 0 
 Al 
  0.0151775  0.9821741  0.9996423

 Al 
  0.9832830  0.2574984  0.2577459

 Al 
  0.2528353  0.9900129  0.2420685

 Al 
  0.2619511  0.2451290  0.0318066

 Al 
  0.4909089  0.0115823  0.9847099

 Al 
  0.5258688  0.2503156  0.2501720

 Al 
  0.7652913  0.9956586  0.2338251

 Al 
  0.7656688  0.2282771  0.0009542

 Al 
  0.9979073  0.5095713  0.0074947

 Al 
  0.0033006  0.7538451  0.2511200

 Al 
  0.2583969  0.4870860  0.2610007

 Al 
  0.2536657  0.7396008  0.9826667

 Al 
  0.0037300  0.0200955  0.4901874

 Al 
  0.9855020  0.2545579  0.7746238

 Al 
  0.2556755  0.0098262  0.7476288

 Al 
  0.2482724  0.2534466  0.4988850

 Al 
  0.9928679  0.4956821  0.5174125

 Al 
  0.0094253  0.7392097  0.7583870

 Al 
  0.2372185  0.4801260  0.7552733

 Al 
  0.2488726  0.7478825  0.4998082

 Al 
  0.4808648  0.5048958  0.9992513

 Al 
  0.5024702  0.7470917  0.2252475

 Al 
  0.7440486  0.5147901  0.2436736

 Al 
  0.7468046  0.7522660  0.9943938

 Al 
  0.4926996  0.9954322  0.4691154

 Al 
  0.4966264  0.2617469  0.7314898

 Al 
  0.7337372  0.0041236  0.7436204

 Al 
  0.7437924  0.2407789  0.5061853

 Al 
  0.5078536  0.5025321  0.5195114

 Al 
  0.4975942  0.7585775  0.7458653

 Al 
  0.7403594  0.4983602  0.7702762

 Al 
  0.7573326  0.7678271  0.5059564

