32 
charge = 0 
 Al 
  0.0155995  0.9823276  0.9995013

 Al 
  0.9832496  0.2582558  0.2572855

 Al 
  0.2525791  0.9904992  0.2422776

 Al 
  0.2623038  0.2450200  0.0320096

 Al 
  0.4904101  0.0111133  0.9852087

 Al 
  0.5265927  0.2500235  0.2502153

 Al 
  0.7656131  0.9958591  0.2341716

 Al 
  0.7666873  0.2277622  0.0005322

 Al 
  0.9979741  0.5095862  0.0072397

 Al 
  0.0031904  0.7536694  0.2510334

 Al 
  0.2589587  0.4873855  0.2606393

 Al 
  0.2533501  0.7401317  0.9825467

 Al 
  0.0034404  0.0199507  0.4900983

 Al 
  0.9852136  0.2550319  0.7744010

 Al 
  0.2557411  0.0099822  0.7481659

 Al 
  0.2478244  0.2529602  0.4989914

 Al 
  0.9930981  0.4956463  0.5179657

 Al 
  0.0090726  0.7388248  0.7584983

 Al 
  0.2373137  0.4800950  0.7551730

 Al 
  0.2486449  0.7476214  0.4996770

 Al 
  0.4805443  0.5045555  0.9992649

 Al 
  0.5026088  0.7471264  0.2252661

 Al 
  0.7442045  0.5141911  0.2441018

 Al 
  0.7469209  0.7522016  0.9944978

 Al 
  0.4924694  0.9947094  0.4694780

 Al 
  0.4967143  0.2621925  0.7314972

 Al 
  0.7334253  0.0040233  0.7434174

 Al 
  0.7433234  0.2416873  0.5059799

 Al 
  0.5075553  0.5028749  0.5193406

 Al 
  0.4980261  0.7584043  0.7463121

 Al 
  0.7404287  0.4985285  0.7695102

 Al 
  0.7569192  0.7677603  0.5057052

