32 
charge = 0 
 Al 
  0.0160029  0.9824984  0.9993540

 Al 
  0.9832360  0.2590045  0.2568239

 Al 
  0.2523241  0.9909782  0.2424855

 Al 
  0.2626281  0.2449198  0.0321754

 Al 
  0.4899386  0.0106443  0.9857123

 Al 
  0.5272845  0.2497413  0.2502500

 Al 
  0.7659138  0.9960522  0.2345255

 Al 
  0.7676563  0.2272796  0.0001250

 Al 
  0.9980422  0.5095862  0.0070034

 Al 
  0.0030852  0.7534825  0.2509554

 Al 
  0.2595032  0.4877023  0.2602829

 Al 
  0.2530432  0.7406651  0.9824489

 Al 
  0.0031583  0.0197874  0.4900314

 Al 
  0.9849574  0.2554787  0.7741535

 Al 
  0.2557918  0.0101344  0.7486869

 Al 
  0.2473900  0.2524739  0.4990929

 Al 
  0.9933159  0.4956128  0.5184954

 Al 
  0.0087075  0.7384634  0.7585862

 Al 
  0.2374189  0.4800740  0.7550777

 Al 
  0.2484209  0.7473640  0.4995495

 Al 
  0.4802522  0.5042003  0.9992698

 Al 
  0.5027363  0.7471734  0.2253044

 Al 
  0.7443654  0.5135921  0.2445300

 Al 
  0.7470410  0.7521435  0.9945943

 Al 
  0.4922516  0.9940003  0.4698567

 Al 
  0.4967984  0.2626009  0.7315405

 Al 
  0.7331357  0.0039243  0.7432243

 Al 
  0.7428754  0.2425920  0.5057769

 Al 
  0.5072558  0.5032313  0.5191414

 Al 
  0.4984493  0.7582248  0.7467477

 Al 
  0.7405067  0.4986968  0.7687503

 Al 
  0.7565145  0.7676761  0.5054490

