32 
charge = 0 
 Al 
  0.0192181  0.9854104  0.9973145

 Al 
  0.9844154  0.2669101  0.2517697

 Al 
  0.2495211  0.9959507  0.2450374

 Al 
  0.2644250  0.2445225  0.0317608

 Al 
  0.4866195  0.0052992  0.9916997

 Al 
  0.5330157  0.2470806  0.2499913

 Al 
  0.7680597  0.9976870  0.2389090

 Al 
  0.7752166  0.2237265  0.9965385

 Al 
  0.9988652  0.5085862  0.0055232

 Al 
  0.0021076  0.7506015  0.2505680

 Al 
  0.2645364  0.4921489  0.2567484

 Al 
  0.2502364  0.7466029  0.9827867

 Al 
  0.0002067  0.0168457  0.4906923

 Al 
  0.9841691  0.2589661  0.7695522

 Al 
  0.2554935  0.0116442  0.7532944

 Al 
  0.2432936  0.2471412  0.4998243

 Al 
  0.9950411  0.4954049  0.5227984

 Al 
  0.0037003  0.7361096  0.7581419

 Al 
  0.2392555  0.4804960  0.7543141

 Al 
  0.2461029  0.7447342  0.4985620

 Al 
  0.4788872  0.4994530  0.9987773

 Al 
  0.5034738  0.7482984  0.2268947

 Al 
  0.7465187  0.5069712  0.2493651

 Al 
  0.7486337  0.7519417  0.9952960

 Al 
  0.4904782  0.9869276  0.4752426

 Al 
  0.4974457  0.2649015  0.7342978

 Al 
  0.7312188  0.0029776  0.7415685

 Al 
  0.7392889  0.2525890  0.5038204

 Al 
  0.5036855  0.5080194  0.5150426

 Al 
  0.5025964  0.7558475  0.7510482

 Al 
  0.7418234  0.5007178  0.7606121

 Al 
  0.7524516  0.7654881  0.5022090

