32 
charge = 0 
 Al 
  0.0190139  0.9850626  0.9975335

 Al 
  0.9841976  0.2661972  0.2522289

 Al 
  0.2497871  0.9955089  0.2447651

 Al 
  0.2643842  0.2445015  0.0319625

 Al 
  0.4867816  0.0058178  0.9911019

 Al 
  0.5326271  0.2473071  0.2500718

 Al 
  0.7679360  0.9975682  0.2384647

 Al 
  0.7747475  0.2239345  0.9968059

 Al 
  0.9987810  0.5087520  0.0055839

 Al 
  0.0021880  0.7509331  0.2505718

 Al 
  0.2641354  0.4916675  0.2570492

 Al 
  0.2504492  0.7460559  0.9826543

 Al 
  0.0004826  0.0172021  0.4905302

 Al 
  0.9840849  0.2587446  0.7701389

 Al 
  0.2555826  0.0115168  0.7529516

 Al 
  0.2436253  0.2476313  0.4997859

 Al 
  0.9949248  0.4954136  0.5225187

 Al 
  0.0042424  0.7362049  0.7582892

 Al 
  0.2390302  0.4804044  0.7543649

 Al 
  0.2463158  0.7449631  0.4986176

 Al 
  0.4788723  0.4999480  0.9988627

 Al 
  0.5034466  0.7481573  0.2266633

 Al 
  0.7462923  0.5075801  0.2489048

 Al 
  0.7484642  0.7519318  0.9952465

 Al 
  0.4906044  0.9875353  0.4746436

 Al 
  0.4974048  0.2648408  0.7338758

 Al 
  0.7313079  0.0030543  0.7416947

 Al 
  0.7395178  0.2516497  0.5039763

 Al 
  0.5040518  0.5075132  0.5155648

 Al 
  0.5022524  0.7561024  0.7506745

 Al 
  0.7416700  0.5005136  0.7613596

 Al 
  0.7528018  0.7657901  0.5025469

