32 
charge = 0 
 Al 
  0.0201203  0.9884016  0.9956017

 Al 
  0.9867284  0.2719605  0.2485657

 Al 
  0.2474915  0.9990892  0.2473640

 Al 
  0.2640439  0.2450398  0.0293723

 Al 
  0.4862928  0.0013291  0.9963442

 Al 
  0.5349921  0.2454594  0.2490260

 Al 
  0.7686228  0.9983949  0.2423803

 Al 
  0.7773464  0.2228565  0.9949149

 Al 
  0.9995446  0.5069786  0.0054094

 Al 
  0.0015556  0.7478157  0.2507017

 Al 
  0.2671031  0.4960299  0.2546792

 Al 
  0.2489493  0.7504876  0.9842953

 Al 
  0.9980731  0.0137716  0.4924521

 Al 
  0.9857012  0.2600416  0.7642666

 Al 
  0.2545592  0.0124858  0.7552782

 Al 
  0.2411378  0.2436303  0.4999517

 Al 
  0.9957329  0.4954297  0.5240533

 Al 
  0.9992884  0.7361628  0.7564898

 Al 
  0.2412554  0.4815121  0.7540431

 Al 
  0.2444817  0.7431798  0.4984110

 Al 
  0.4798760  0.4956128  0.9979555

 Al 
  0.5035184  0.7494468  0.2290406

 Al 
  0.7483070  0.5026471  0.2527969

 Al 
  0.7500062  0.7521422  0.9956797

 Al 
  0.4897084  0.9827459  0.4802646

 Al 
  0.4976561  0.2645871  0.7382555

 Al 
  0.7310443  0.0024714  0.7407406

 Al 
  0.7382234  0.2595478  0.5028761

 Al 
  0.5007066  0.5119945  0.5104661

 Al 
  0.5048203  0.7537548  0.7537176

 Al 
  0.7430845  0.5023093  0.7551458

 Al 
  0.7500248  0.7626863  0.4994617

