32 
charge = 0 
 Al 
  0.0200522  0.9879140  0.9958653

 Al 
  0.9863064  0.2712353  0.2490186

 Al 
  0.2478021  0.9986350  0.2469816

 Al 
  0.2641701  0.2449260  0.0298203

 Al 
  0.4862494  0.0019355  0.9956277

 Al 
  0.5347965  0.2456995  0.2492104

 Al 
  0.7685721  0.9983070  0.2418445

 Al 
  0.7771682  0.2229159  0.9951228

 Al 
  0.9994369  0.5072558  0.0053982

 Al 
  0.0016336  0.7482637  0.2506658

 Al 
  0.2667628  0.4954210  0.2549725

 Al 
  0.2491102  0.7499307  0.9840169

 Al 
  0.9984023  0.0142765  0.4921328

 Al 
  0.9853794  0.2599413  0.7651515

 Al 
  0.2547250  0.0123731  0.7550406

 Al 
  0.2414274  0.2441377  0.4999493

 Al 
  0.9956425  0.4954161  0.5239567

 Al 
  0.9999839  0.7360725  0.7567917

 Al 
  0.2409237  0.4813215  0.7540741

 Al 
  0.2447317  0.7433951  0.4984035

 Al 
  0.4796334  0.4961982  0.9980954

 Al 
  0.5035258  0.7492686  0.2286756

 Al 
  0.7480323  0.5032659  0.2522845

 Al 
  0.7497896  0.7520989  0.9956166

 Al 
  0.4898087  0.9833362  0.4794527

 Al 
  0.4976338  0.2647084  0.7375848

 Al 
  0.7310195  0.0025420  0.7408544

 Al 
  0.7383174  0.2585107  0.5029924

 Al 
  0.5011819  0.5113831  0.5112185

 Al 
  0.5045258  0.7540889  0.7533278

 Al 
  0.7428865  0.5020643  0.7559527

 Al 
  0.7503688  0.7631640  0.4998973

