32 
charge = 0 
 Al 
  0.0199569  0.9922628  0.9937045

 Al 
  0.9905574  0.2767833  0.2456364

 Al 
  0.2451562  0.0022053  0.2504925

 Al 
  0.2625167  0.2461846  0.0253205

 Al 
  0.4874449  0.9968702  0.0016818

 Al 
  0.5353980  0.2437206  0.2473442

 Al 
  0.7687305  0.9988738  0.2463690

 Al 
  0.7773774  0.2231412  0.9936600

 Al 
  0.0003725  0.5047015  0.0055826

 Al 
  0.0010457  0.7443332  0.2510915

 Al 
  0.2691216  0.5006274  0.2526855

 Al 
  0.2480422  0.7541768  0.9867606

 Al 
  0.9955745  0.0096938  0.4952762

 Al 
  0.9888174  0.2601851  0.7570974

 Al 
  0.2532003  0.0131305  0.7564168

 Al 
  0.2393978  0.2402096  0.4998119

 Al 
  0.9963554  0.4956661  0.5237798

 Al 
  0.9940102  0.7376108  0.7538525

 Al 
  0.2439533  0.4833226  0.7538748

 Al 
  0.2425511  0.7418469  0.4987748

 Al 
  0.4826172  0.4914002  0.9968479

 Al 
  0.5033946  0.7507289  0.2320751

 Al 
  0.7503007  0.4985632  0.2563895

 Al 
  0.7516831  0.7525296  0.9962638

 Al 
  0.4890649  0.9788538  0.4867210

 Al 
  0.4977885  0.2630773  0.7437008

 Al 
  0.7316965  0.0019900  0.7399844

 Al 
  0.7381157  0.2669113  0.5023093

 Al 
  0.4969704  0.5164348  0.5044961

 Al 
  0.5065405  0.7511386  0.7564675

 Al 
  0.7445522  0.5041149  0.7494604

 Al 
  0.7476969  0.7587112  0.4960720

