32 
charge = 0 
 Al 
  0.0183988  0.9968145  0.9918841

 Al 
  0.9961772  0.2806445  0.2434533

 Al 
  0.2425301  0.0050629  0.2544317

 Al 
  0.2598399  0.2478825  0.0196104

 Al 
  0.4901923  0.9922170  0.0073920

 Al 
  0.5337063  0.2418568  0.2450411

 Al 
  0.7684236  0.9991065  0.2506769

 Al 
  0.7751374  0.2249443  0.9926167

 Al 
  0.0013056  0.5020445  0.0054577

 Al 
  0.0006596  0.7403817  0.2516880

 Al 
  0.2702577  0.5056532  0.2506868

 Al 
  0.2474791  0.7571630  0.9901354

 Al 
  0.9927516  0.0045889  0.4992191

 Al 
  0.9933481  0.2591456  0.7484914

 Al 
  0.2516620  0.0133162  0.7565034

 Al 
  0.2383793  0.2373286  0.4993924

 Al 
  0.9972180  0.4963244  0.5213814

 Al 
  0.9882493  0.7407492  0.7504084

 Al 
  0.2472749  0.4862606  0.7537350

 Al 
  0.2401775  0.7410586  0.4998354

 Al 
  0.4875959  0.4873373  0.9956933

 Al 
  0.5032016  0.7519591  0.2360217

 Al 
  0.7522140  0.4953480  0.2596171

 Al 
  0.7536459  0.7529887  0.9972576

 Al 
  0.4884597  0.9756114  0.4945881

 Al 
  0.4979716  0.2603336  0.7501955

 Al 
  0.7332941  0.0014838  0.7393161

 Al 
  0.7389312  0.2739889  0.5023192

 Al 
  0.4925313  0.5207923  0.4975682

 Al 
  0.5073882  0.7479939  0.7592310

 Al 
  0.7460163  0.5059873  0.7440238

 Al 
  0.7455794  0.7536335  0.4921291

