32 
charge = 0 
 Al 
  0.0149423  0.0013465  0.9907133

 Al 
  0.0034553  0.2818264  0.2430164

 Al 
  0.2399386  0.0069229  0.2586617

 Al 
  0.2561853  0.2498824  0.0126516

 Al 
  0.4945436  0.9883682  0.0122482

 Al 
  0.5290864  0.2401663  0.2427689

 Al 
  0.7676811  0.9991263  0.2546136

 Al 
  0.7704569  0.2289602  0.9916823

 Al 
  0.0021175  0.4998540  0.0038983

 Al 
  0.0005854  0.7366776  0.2522746

 Al 
  0.2696587  0.5101629  0.2485124

 Al 
  0.2471635  0.7584068  0.9941575

 Al 
  0.9900116  0.9988763  0.5040877

 Al 
  0.9985570  0.2565232  0.7400302

 Al 
  0.2504393  0.0124462  0.7552398

 Al 
  0.2388681  0.2360725  0.4986684

 Al 
  0.9987476  0.4977848  0.5160623

 Al 
  0.9831531  0.7458047  0.7467539

 Al 
  0.2507537  0.4907430  0.7535308

 Al 
  0.2373632  0.7415796  0.5018464

 Al 
  0.4953344  0.4847198  0.9951129

 Al 
  0.5030197  0.7528464  0.2406378

 Al 
  0.7534243  0.4942292  0.2609846

 Al 
  0.7557621  0.7532263  0.9988441

 Al 
  0.4878583  0.9740520  0.5031112

 Al 
  0.4984518  0.2561433  0.7564279

 Al 
  0.7359797  0.0009257  0.7389721

 Al 
  0.7404609  0.2785803  0.5031657

 Al 
  0.4881318  0.5236374  0.4911205

 Al 
  0.5066779  0.7445683  0.7616269

 Al 
  0.7470954  0.5075231  0.7402963

 Al 
  0.7440968  0.7480199  0.4882828

