32 
charge = 0 
 Al 
  0.0157480  0.0005470  0.9908519

 Al 
  0.0020036  0.2818969  0.2429199

 Al 
  0.2403978  0.0066927  0.2578944

 Al 
  0.2569217  0.2495025  0.0140129

 Al 
  0.4936228  0.9889671  0.0114846

 Al 
  0.5302015  0.2404448  0.2431340

 Al 
  0.7678531  0.9991275  0.2539453

 Al 
  0.7715026  0.2280110  0.9918519

 Al 
  0.0019900  0.5001733  0.0043636

 Al 
  0.0005668  0.7373051  0.2521843

 Al 
  0.2699483  0.5094191  0.2489518

 Al 
  0.2472192  0.7583535  0.9933766

 Al 
  0.9904881  0.9999530  0.5031323

 Al 
  0.9975892  0.2571407  0.7414967

 Al 
  0.2506200  0.0127246  0.7555802

 Al 
  0.2386169  0.2361232  0.4988280

 Al 
  0.9983899  0.4974321  0.5172974

 Al 
  0.9839847  0.7447230  0.7474098

 Al 
  0.2501250  0.4897728  0.7535790

 Al 
  0.2379177  0.7413395  0.5013885

 Al 
  0.4936699  0.4850280  0.9951376

 Al 
  0.5030518  0.7527164  0.2397468

 Al 
  0.7532820  0.4942305  0.2609623

 Al 
  0.7553611  0.7532189  0.9984976

 Al 
  0.4879709  0.9741597  0.5015272

 Al 
  0.4983256  0.2570467  0.7553698

 Al 
  0.7353955  0.0010346  0.7389906

 Al 
  0.7401453  0.2780469  0.5029429

 Al 
  0.4888941  0.5233107  0.4921910

 Al 
  0.5069576  0.7452094  0.7612284

 Al 
  0.7469395  0.5072855  0.7407802

 Al 
  0.7443023  0.7490656  0.4889436

