32 
charge = 0 
 Al 
  0.0168494  0.9992562  0.9911465

 Al 
  0.9998267  0.2817262  0.2429385

 Al 
  0.2411353  0.0062212  0.2566729

 Al 
  0.2580194  0.2489159  0.0160722

 Al 
  0.4922900  0.9900166  0.0101530

 Al 
  0.5316952  0.2409163  0.2437713

 Al 
  0.7680895  0.9991300  0.2528427

 Al 
  0.7729741  0.2267264  0.9921180

 Al 
  0.0017672  0.5007623  0.0049119

 Al 
  0.0005680  0.7383459  0.2520209

 Al 
  0.2702267  0.5081642  0.2495941

 Al 
  0.2473021  0.7581011  0.9921897

 Al 
  0.9912653  0.0016212  0.5016856

 Al 
  0.9960720  0.2579835  0.7438939

 Al 
  0.2509467  0.0130427  0.7560158

 Al 
  0.2383842  0.2363819  0.4990533

 Al 
  0.9979060  0.4969618  0.5189916

 Al 
  0.9853968  0.7431662  0.7484617

 Al 
  0.2491238  0.4883941  0.7536434

 Al 
  0.2387518  0.7411069  0.5007562

 Al 
  0.4912900  0.4856826  0.9952614

 Al 
  0.5031026  0.7524826  0.2383867

 Al 
  0.7529813  0.4944260  0.2606950

 Al 
  0.7547448  0.7531682  0.9980075

 Al 
  0.4881454  0.9745025  0.4990520

 Al 
  0.4981672  0.2583337  0.7536149

 Al 
  0.7345639  0.0011992  0.7390686

 Al 
  0.7396750  0.2768947  0.5026533

 Al 
  0.4901428  0.5225967  0.4939941

 Al 
  0.5072534  0.7462069  0.7605626

 Al 
  0.7466536  0.5068672  0.7417380

 Al 
  0.7446896  0.7506992  0.4900327

