32 
charge = 0 
 Al 
  0.0171885  0.9987983  0.9912678

 Al 
  0.9990991  0.2815913  0.2429917

 Al 
  0.2413977  0.0060282  0.2562460

 Al 
  0.2583845  0.2487142  0.0167690

 Al 
  0.4918568  0.9904101  0.0096567

 Al 
  0.5321469  0.2410883  0.2440052

 Al 
  0.7681625  0.9991288  0.2524442

 Al 
  0.7734382  0.2263353  0.9922108

 Al 
  0.0016843  0.5009888  0.0050554

 Al 
  0.0005779  0.7387221  0.2519603

 Al 
  0.2702762  0.5077051  0.2498082

 Al 
  0.2473318  0.7579674  0.9917875

 Al 
  0.9915425  0.0021942  0.5011992

 Al 
  0.9955460  0.2582409  0.7447515

 Al 
  0.2510730  0.0131219  0.7561383

 Al 
  0.2383446  0.2365180  0.4991238

 Al 
  0.9977563  0.4968207  0.5195151

 Al 
  0.9859153  0.7426637  0.7488305

 Al 
  0.2487736  0.4879511  0.7536632

 Al 
  0.2390327  0.7410636  0.5005581

 Al 
  0.4905240  0.4859549  0.9953245

 Al 
  0.5031199  0.7523922  0.2379251

 Al 
  0.7528551  0.4945473  0.2605428

 Al 
  0.7545344  0.7531422  0.9978504

 Al 
  0.4882048  0.9746696  0.4981956

 Al 
  0.4981214  0.2587471  0.7529813

 Al 
  0.7342990  0.0012549  0.7391057

 Al 
  0.7395203  0.2764145  0.5025704

 Al 
  0.4905896  0.5222984  0.4946513

 Al 
  0.5073177  0.7465509  0.7603200

 Al 
  0.7465435  0.5067101  0.7421242

 Al 
  0.7448418  0.7512636  0.4904237

