32 
charge = 0 
 Al 
  0.0110613  0.0041916  0.9905735

 Al 
  0.0093906  0.2801285  0.2441921

 Al 
  0.2382865  0.0072274  0.2614178

 Al 
  0.2531422  0.2513935  0.0070727

 Al 
  0.4985719  0.9866356  0.0144485

 Al 
  0.5235595  0.2393124  0.2418333

 Al 
  0.7668346  0.9991968  0.2569056

 Al 
  0.7657133  0.2336530  0.9910524

 Al 
  0.0024788  0.4991300  0.0011188

 Al 
  0.0008255  0.7346146  0.2524615

 Al 
  0.2676340  0.5125316  0.2464890

 Al 
  0.2468578  0.7578053  0.9973281

 Al 
  0.9883657  0.9947094  0.5079204

 Al 
  0.0021806  0.2535926  0.7349871

 Al 
  0.2499245  0.0106987  0.7535530

 Al 
  0.2406997  0.2368299  0.4979382

 Al 
  0.0005223  0.4995545  0.5102000

 Al 
  0.9805628  0.7505322  0.7444223

 Al 
  0.2530568  0.4951846  0.7532734

 Al 
  0.2350898  0.7432664  0.5040233

 Al 
  0.5028452  0.4844339  0.9955076

 Al 
  0.5028736  0.7532387  0.2442577

 Al 
  0.7535840  0.4950522  0.2597965

 Al 
  0.7573771  0.7530382  0.0004356

 Al 
  0.4874499  0.9745409  0.5091827

 Al 
  0.4991226  0.2520420  0.7599005

 Al 
  0.7386058  0.0004703  0.7391998

 Al 
  0.7417380  0.2789503  0.5042263

 Al 
  0.4855564  0.5237612  0.4877815

 Al 
  0.5049280  0.7420635  0.7629499

 Al 
  0.7475422  0.5082001  0.7394535

 Al 
  0.7436191  0.7440213  0.4860972

