32 
charge = 0 
 Al 
  0.0017252  0.0082496  0.9919113

 Al 
  0.0197577  0.2720806  0.2485137

 Al 
  0.2360007  0.0052931  0.2648829

 Al 
  0.2475249  0.2542213  0.9959965

 Al 
  0.5069180  0.9857396  0.0152344

 Al 
  0.5095503  0.2388694  0.2427974

 Al 
  0.7644919  0.0001089  0.2599908

 Al 
  0.7556792  0.2454520  0.9902864

 Al 
  0.0025457  0.4996844  0.9924249

 Al 
  0.0017672  0.7330664  0.2518848

 Al 
  0.2609190  0.5146169  0.2415128

 Al 
  0.2458183  0.7543476  0.0032338

 Al 
  0.9864413  0.9881070  0.5138496

 Al 
  0.0077570  0.2474209  0.7289206

 Al 
  0.2492537  0.0047869  0.7502054

 Al 
  0.2475682  0.2420784  0.4964371

 Al 
  0.0049849  0.5037857  0.4969841

 Al 
  0.9787176  0.7594401  0.7418655

 Al 
  0.2563227  0.5051396  0.7524578

 Al 
  0.2311928  0.7489629  0.5090664

 Al 
  0.5192342  0.4873707  0.9980991

 Al 
  0.5022227  0.7538798  0.2511361

 Al 
  0.7525865  0.4982724  0.2528105

 Al 
  0.7603188  0.7518007  0.0040357

 Al 
  0.4873434  0.9787671  0.5190325

 Al 
  0.5007537  0.2429249  0.7633038

 Al 
  0.7440783  0.9995347  0.7413742

 Al 
  0.7439223  0.2731474  0.5059069

 Al 
  0.4827397  0.5190708  0.4855626

 Al 
  0.4998589  0.7378323  0.7644683

 Al 
  0.7482476  0.5084315  0.7414781

 Al 
  0.7437577  0.7375155  0.4843362

