32 
charge = 0 
 Al 
  0.0052980  0.0069526  0.9912071

 Al 
  0.0162937  0.2755693  0.2467935

 Al 
  0.2366900  0.0063561  0.2639251

 Al 
  0.2494839  0.2532102  0.0000693

 Al 
  0.5038810  0.9857717  0.0153978

 Al 
  0.5150215  0.2388632  0.2420289

 Al 
  0.7654609  0.9996300  0.2590255

 Al 
  0.7593028  0.2408816  0.9904695

 Al 
  0.0026162  0.4992723  0.9959915

 Al 
  0.0013898  0.7332187  0.2522449

 Al 
  0.2636553  0.5141899  0.2434409

 Al 
  0.2462403  0.7557992  0.0011584

 Al 
  0.9869524  0.9902183  0.5120687

 Al 
  0.0059403  0.2496015  0.7306086

 Al 
  0.2495198  0.0072831  0.7513069

 Al 
  0.2446104  0.2396614  0.4969519

 Al 
  0.0032610  0.5022152  0.5018724

 Al 
  0.9789429  0.7564316  0.7424410

 Al 
  0.2553314  0.5014294  0.7528056

 Al 
  0.2324563  0.7466239  0.5071766

 Al 
  0.5131850  0.4858472  0.9969358

 Al 
  0.5025457  0.7536223  0.2486770

 Al 
  0.7530840  0.4970484  0.2559131

 Al 
  0.7593077  0.7523625  0.0026830

 Al 
  0.4872185  0.9768180  0.5157764

 Al 
  0.5001646  0.2463232  0.7625204

 Al 
  0.7421105  0.9998762  0.7402876

 Al 
  0.7431810  0.2760556  0.5054527

 Al 
  0.4834724  0.5214482  0.4857866

 Al 
  0.5018440  0.7392468  0.7640513

 Al 
  0.7479419  0.5084835  0.7403433

 Al 
  0.7435969  0.7396899  0.4845862

