32 
charge = 0 
 Al 
  0.0073660  0.0060826  0.9909014

 Al 
  0.0140179  0.2773798  0.2458121

 Al 
  0.2371863  0.0067979  0.2631788

 Al 
  0.2507141  0.2525902  0.0024912

 Al 
  0.5020420  0.9859401  0.0152629

 Al 
  0.5181229  0.2389473  0.2417950

 Al 
  0.7659757  0.9994282  0.2583659

 Al 
  0.7615254  0.2382617  0.9906378

 Al 
  0.0026051  0.4991238  0.9979296

 Al 
  0.0011732  0.7335478  0.2523761

 Al 
  0.2651639  0.5137567  0.2445461

 Al 
  0.2464767  0.7565937  0.9998614

 Al 
  0.9873645  0.9916625  0.5107606

 Al 
  0.0047337  0.2509702  0.7319044

 Al 
  0.2496535  0.0085998  0.7520556

 Al 
  0.2430796  0.2384771  0.4972885

 Al 
  0.0022697  0.5012710  0.5048005

 Al 
  0.9793203  0.7544589  0.7429966

 Al 
  0.2546223  0.4992253  0.7529862

 Al 
  0.2333177  0.7453468  0.5060591

 Al 
  0.5095589  0.4851740  0.9963480

 Al 
  0.5026855  0.7534875  0.2471709

 Al 
  0.7533204  0.4963108  0.2574972

 Al 
  0.7586605  0.7526434  0.0018873

 Al 
  0.4872457  0.9758613  0.5136305

 Al 
  0.4997958  0.2483380  0.7618076

 Al 
  0.7409014  0.0000842  0.7398050

 Al 
  0.7427058  0.2773959  0.5050765

 Al 
  0.4840651  0.5225212  0.4862296

 Al 
  0.5029788  0.7401738  0.7637283

 Al 
  0.7477984  0.5084451  0.7398532

 Al 
  0.7435535  0.7411032  0.4849562

