32 
charge = 0 
 Al 
  0.0024392  0.0080083  0.9917529

 Al 
  0.0191129  0.2728120  0.2481721

 Al 
  0.2361220  0.0055369  0.2647233

 Al 
  0.2479011  0.2540246  0.9968034

 Al 
  0.5063252  0.9857235  0.0153037

 Al 
  0.5106554  0.2388545  0.2426080

 Al 
  0.7646961  1.0000000  0.2598126

 Al 
  0.7563796  0.2445349  0.9903124

 Al 
  0.0025692  0.4995904  0.9931588

 Al 
  0.0016930  0.7330528  0.2519714

 Al 
  0.2614759  0.5145612  0.2418989

 Al 
  0.2459037  0.7546409  0.0028353

 Al 
  0.9865242  0.9884894  0.5135451

 Al 
  0.0074179  0.2478367  0.7292065

 Al 
  0.2493132  0.0053079  0.7504022

 Al 
  0.2469445  0.2415586  0.4965311

 Al 
  0.0046409  0.5034800  0.4979419

 Al 
  0.9787201  0.7588820  0.7419398

 Al 
  0.2561470  0.5044094  0.7525308

 Al 
  0.2314205  0.7484840  0.5086939

 Al 
  0.5180498  0.4870303  0.9978528

 Al 
  0.5022969  0.7538241  0.2506571

 Al 
  0.7526929  0.4980360  0.2534639

 Al 
  0.7601282  0.7519195  0.0037671

 Al 
  0.4872977  0.9783488  0.5184248

 Al 
  0.5006423  0.2435956  0.7631899

 Al 
  0.7436983  0.9996015  0.7411304

 Al 
  0.7437812  0.2737847  0.5058376

 Al 
  0.4828585  0.5195968  0.4855576

 Al 
  0.5002562  0.7380959  0.7643990

 Al 
  0.7481783  0.5084526  0.7412269

 Al 
  0.7437181  0.7379251  0.4843473

