32 
charge = 0 
 Al 
  0.0031570  0.0077570  0.9916031

 Al 
  0.0184422  0.2735298  0.2478268

 Al 
  0.2362519  0.0057646  0.2645475

 Al 
  0.2482860  0.2538241  0.9976165

 Al 
  0.5057225  0.9857173  0.0153557

 Al 
  0.5117606  0.2388458  0.2424373

 Al 
  0.7648953  0.9998973  0.2596270

 Al 
  0.7570949  0.2436154  0.9903433

 Al 
  0.0025877  0.4995000  0.9938852

 Al 
  0.0016175  0.7330627  0.2520506

 Al 
  0.2620316  0.5144919  0.2422875

 Al 
  0.2459891  0.7549354  0.0024269

 Al 
  0.9866170  0.9888941  0.5132122

 Al 
  0.0070652  0.2482649  0.7295183

 Al 
  0.2493688  0.0058203  0.7506138

 Al 
  0.2463343  0.2410549  0.4966314

 Al 
  0.0042943  0.5031682  0.4989147

 Al 
  0.9787449  0.7582991  0.7420350

 Al 
  0.2559601  0.5036694  0.7526026

 Al 
  0.2316618  0.7480075  0.5083164

 Al 
  0.5168469  0.4867073  0.9976127

 Al 
  0.5023662  0.7537709  0.2501708

 Al 
  0.7527969  0.4977947  0.2541038

 Al 
  0.7599314  0.7520358  0.0034961

 Al 
  0.4872642  0.9779429  0.5177937

 Al 
  0.5005272  0.2442738  0.7630538

 Al 
  0.7433097  0.9996683  0.7408990

 Al 
  0.7436365  0.2743961  0.5057571

 Al 
  0.4829922  0.5201005  0.4855762

 Al 
  0.5006547  0.7383706  0.7643223

 Al 
  0.7481140  0.5084686  0.7409856

 Al 
  0.7436822  0.7383496  0.4843782

