32 
charge = 0 
 Al 
  0.9963863  0.0098621  0.9934372

 Al 
  0.0237290  0.2659844  0.2509356

 Al 
  0.2353881  0.0029058  0.2655153

 Al 
  0.2449309  0.2556037  0.9899869

 Al 
  0.5111232  0.9862185  0.0141676

 Al 
  0.5009913  0.2392023  0.2447713

 Al 
  0.7627457  0.0011819  0.2611232

 Al 
  0.7509418  0.2523081  0.9903198

 Al 
  0.0022264  0.5005247  0.9865687

 Al 
  0.0022586  0.7340243  0.2509603

 Al 
  0.2566519  0.5144993  0.2386107

 Al 
  0.2451995  0.7522053  0.0059118

 Al 
  0.9861096  0.9859698  0.5150834

 Al 
  0.0099438  0.2446822  0.7276014

 Al 
  0.2486263  0.0005049  0.7492104

 Al 
  0.2528526  0.2465856  0.4959705

 Al 
  0.0075454  0.5058784  0.4901676

 Al 
  0.9794305  0.7627358  0.7421167

 Al 
  0.2572125  0.5103695  0.7518266

 Al 
  0.2300158  0.7527078  0.5117234

 Al 
  0.5275506  0.4905871  0.0001473

 Al 
  0.5014541  0.7543921  0.2545604

 Al 
  0.7517499  0.4998094  0.2474754

 Al 
  0.7615192  0.7508255  0.0060257

 Al 
  0.4880996  0.9824031  0.5228405

 Al 
  0.5014195  0.2380550  0.7635018

 Al 
  0.7466710  0.9991040  0.7437392

 Al 
  0.7448988  0.2674868  0.5059972

 Al 
  0.4822682  0.5142518  0.4863819

 Al 
  0.4969395  0.7362321  0.7647629

 Al 
  0.7489691  0.5080937  0.7436290

 Al 
  0.7441500  0.7348027  0.4849277

