32 
charge = 0 
 Al 
  0.9957824  0.0100280  0.9936575

 Al 
  0.0240681  0.2652121  0.2511843

 Al 
  0.2353584  0.0025580  0.2655178

 Al 
  0.2446624  0.2557497  0.9893013

 Al 
  0.5115712  0.9863138  0.0139820

 Al 
  0.4999814  0.2392679  0.2450609

 Al 
  0.7625130  0.0013366  0.2612309

 Al 
  0.7504802  0.2530766  0.9903557

 Al 
  0.0021732  0.5006299  0.9858608

 Al 
  0.0023019  0.7342508  0.2508168

 Al 
  0.2561631  0.5144164  0.2382803

 Al 
  0.2451339  0.7519801  0.0061730

 Al 
  0.9861059  0.9858262  0.5150785

 Al 
  0.0101505  0.2444235  0.7275481

 Al 
  0.2485261  0.9999728  0.7491696

 Al 
  0.2535320  0.2471734  0.4959569

 Al 
  0.0078288  0.5060839  0.4894448

 Al 
  0.9796074  0.7629857  0.7422578

 Al 
  0.2572558  0.5109252  0.7517450

 Al 
  0.2299614  0.7531484  0.5120019

 Al 
  0.5284045  0.4910438  0.0004022

 Al 
  0.5013341  0.7544639  0.2549342

 Al 
  0.7516583  0.4999493  0.2468281

 Al 
  0.7616232  0.7507091  0.0062485

 Al 
  0.4882469  0.9828808  0.5231795

 Al 
  0.5014690  0.2375254  0.7634436

 Al 
  0.7469308  0.9990669  0.7440807

 Al 
  0.7450015  0.2667368  0.5059527

 Al 
  0.4822682  0.5135946  0.4865663

 Al 
  0.4966215  0.7361022  0.7647678

 Al 
  0.7490817  0.5080330  0.7438914

 Al 
  0.7442045  0.7345367  0.4850824

