32 
charge = 0 
 Al 
  0.9951933  0.0101864  0.9938840

 Al 
  0.0243701  0.2644399  0.2514195

 Al 
  0.2353398  0.0022004  0.2655054

 Al 
  0.2444062  0.2558908  0.9886318

 Al 
  0.5120006  0.9864165  0.0137877

 Al 
  0.4989852  0.2393372  0.2453567

 Al 
  0.7622779  0.0014950  0.2613299

 Al 
  0.7500483  0.2538228  0.9903978

 Al 
  0.0021187  0.5007339  0.9851592

 Al 
  0.0023402  0.7345032  0.2506658

 Al 
  0.2556841  0.5143186  0.2379560

 Al 
  0.2450720  0.7517660  0.0064180

 Al 
  0.9861084  0.9857111  0.5150364

 Al 
  0.0103448  0.2441822  0.7275184

 Al 
  0.2484209  0.9994431  0.7491473

 Al 
  0.2542127  0.2477637  0.4959544

 Al 
  0.0081023  0.5062757  0.4887506

 Al 
  0.9798030  0.7631986  0.7424224

 Al 
  0.2572843  0.5114586  0.7516633

 Al 
  0.2299267  0.7535815  0.5122667

 Al 
  0.5292114  0.4915128  0.0006559

 Al 
  0.5012066  0.7545369  0.2552968

 Al 
  0.7515717  0.5000743  0.2461895

 Al 
  0.7617172  0.7505965  0.0064663

 Al 
  0.4884053  0.9833622  0.5234889

 Al 
  0.5015086  0.2370143  0.7633694

 Al 
  0.7471759  0.9990322  0.7444322

 Al 
  0.7451017  0.2659794  0.5058945

 Al 
  0.4822831  0.5129276  0.4867655

 Al 
  0.4963145  0.7359896  0.7647641

 Al 
  0.7491993  0.5079662  0.7441500

 Al 
  0.7442602  0.7342842  0.4852557

