32 
charge = 0 
 Al 
  0.9935065  0.0106331  0.9946067

 Al 
  0.0250755  0.2621108  0.2520519

 Al 
  0.2353485  0.0010594  0.2653755

 Al 
  0.2437070  0.2562831  0.9866999

 Al 
  0.5131949  0.9867655  0.0131503

 Al 
  0.4960683  0.2395723  0.2462811

 Al 
  0.7615477  0.0019962  0.2615922

 Al 
  0.7489332  0.2559242  0.9905685

 Al 
  0.0019430  0.5010358  0.9830887

 Al 
  0.0024281  0.7354042  0.2501745

 Al 
  0.2543141  0.5139362  0.2370229

 Al 
  0.2449050  0.7511955  0.0070529

 Al 
  0.9861554  0.9855267  0.5146961

 Al 
  0.0108509  0.2435684  0.7275531

 Al 
  0.2480719  0.9978664  0.7492005

 Al 
  0.2562695  0.2495545  0.4960175

 Al 
  0.0088671  0.5067658  0.4868373

 Al 
  0.9805047  0.7636206  0.7430647

 Al 
  0.2572781  0.5129214  0.7514121

 Al 
  0.2299577  0.7548339  0.5129796

 Al 
  0.5313512  0.4929966  0.0014059

 Al 
  0.5007871  0.7547634  0.2563264

 Al 
  0.7513489  0.5003775  0.2443357

 Al 
  0.7619375  0.7502785  0.0070875

 Al 
  0.4889609  0.9848337  0.5242476

 Al 
  0.5015791  0.2355911  0.7630501

 Al 
  0.7478293  0.9989530  0.7455473

 Al 
  0.7453876  0.2636676  0.5056519

 Al 
  0.4824056  0.5108658  0.4874536

 Al 
  0.4954668  0.7357507  0.7647097

 Al 
  0.7495867  0.5077397  0.7448827

 Al 
  0.7444297  0.7336085  0.4858782

