32 
charge = 0 
 Al 
  0.9909175  0.0113039  0.9959853

 Al 
  0.0255965  0.2581196  0.2528724

 Al 
  0.2355849  0.9989010  0.2648681

 Al 
  0.2427454  0.2568511  0.9836766

 Al 
  0.5149027  0.9874808  0.0119153

 Al 
  0.4913593  0.2400611  0.2479184

 Al 
  0.7602099  0.0029231  0.2619066

 Al 
  0.7476561  0.2590008  0.9910128

 Al 
  0.0016311  0.5015074  0.9797102

 Al 
  0.0024726  0.7374313  0.2492042

 Al 
  0.2522177  0.5129808  0.2355564

 Al 
  0.2446958  0.7504814  0.0077929

 Al 
  0.9863385  0.9857544  0.5134152

 Al 
  0.0114524  0.2428902  0.7279763

 Al 
  0.2473689  0.9952589  0.7497042

 Al 
  0.2597607  0.2526286  0.4963925

 Al 
  0.0099624  0.5073004  0.4841443

 Al 
  0.9820714  0.7636169  0.7446352

 Al 
  0.2569526  0.5149460  0.7509727

 Al 
  0.2304725  0.7567806  0.5138830

 Al 
  0.5339550  0.4957985  0.0026150

 Al 
  0.4999282  0.7551643  0.2579093

 Al 
  0.7511472  0.5006349  0.2414732

 Al 
  0.7621021  0.7498465  0.0080367

 Al 
  0.4901725  0.9874140  0.5249851

 Al 
  0.5015259  0.2335553  0.7622147

 Al 
  0.7486770  0.9988887  0.7476400

 Al 
  0.7458406  0.2596369  0.5050196

 Al 
  0.4829117  0.5071915  0.4888916

 Al 
  0.4942886  0.7356925  0.7644683

 Al 
  0.7503601  0.5072496  0.7459222

 Al 
  0.7447255  0.7327137  0.4872816

