32 
charge = 0 
 Al 
  0.9929694  0.0107730  0.9948629

 Al 
  0.0252450  0.2613274  0.2522375

 Al 
  0.2353732  0.0006547  0.2653025

 Al 
  0.2434954  0.2564044  0.9860787

 Al 
  0.5135637  0.9868942  0.0129214

 Al 
  0.4951153  0.2396602  0.2465992

 Al 
  0.7612952  0.0021719  0.2616665

 Al 
  0.7486214  0.2565814  0.9906403

 Al 
  0.0018823  0.5011336  0.9824093

 Al 
  0.0024479  0.7357557  0.2499963

 Al 
  0.2538785  0.5137778  0.2367222

 Al 
  0.2448555  0.7510284  0.0072323

 Al 
  0.9861814  0.9855193  0.5145117

 Al 
  0.0109945  0.2433988  0.7276026

 Al 
  0.2479432  0.9973442  0.7492587

 Al 
  0.2569601  0.2501596  0.4960646

 Al 
  0.0091047  0.5069006  0.4862519

 Al 
  0.9807769  0.7636899  0.7433283

 Al 
  0.2572459  0.5133669  0.7513267

 Al 
  0.2300134  0.7552361  0.5131887

 Al 
  0.5319700  0.4935214  0.0016509

 Al 
  0.5006324  0.7548413  0.2566531

 Al 
  0.7512908  0.5004542  0.2437392

 Al 
  0.7619907  0.7501807  0.0072855

 Al 
  0.4891738  0.9853349  0.5244468

 Al 
  0.5015853  0.2351517  0.7629127

 Al 
  0.7480211  0.9989345  0.7459408

 Al 
  0.7454792  0.2628818  0.5055480

 Al 
  0.4824761  0.5101567  0.4877122

 Al 
  0.4952082  0.7357049  0.7646775

 Al 
  0.7497277  0.5076543  0.7451104

 Al 
  0.7444867  0.7334080  0.4861207

