32 
charge = 0 
 Al 
  0.9899386  0.0115564  0.9966140

 Al 
  0.0255792  0.2564514  0.2531310

 Al 
  0.2357643  0.9979308  0.2645661

 Al 
  0.2424236  0.2570541  0.9825095

 Al 
  0.5155005  0.9878187  0.0113571

 Al 
  0.4894906  0.2402926  0.2486003

 Al 
  0.7596121  0.0033290  0.2619920

 Al 
  0.7473405  0.2600898  0.9912517

 Al 
  0.0015049  0.5016856  0.9783612

 Al 
  0.0024491  0.7384436  0.2487575

 Al 
  0.2514269  0.5124771  0.2349859

 Al 
  0.2446389  0.7502797  0.0079798

 Al 
  0.9864450  0.9860304  0.5126504

 Al 
  0.0116120  0.2427343  0.7282597

 Al 
  0.2470410  0.9942094  0.7500619

 Al 
  0.2611863  0.2539020  0.4966499

 Al 
  0.0103398  0.5074130  0.4832162

 Al 
  0.9828499  0.7633731  0.7454458

 Al 
  0.2567051  0.5156230  0.7507846

 Al 
  0.2308524  0.7575157  0.5141404

 Al 
  0.5346431  0.4970645  0.0030828

 Al 
  0.4995186  0.7553327  0.2585219

 Al 
  0.7511435  0.5006522  0.2404188

 Al 
  0.7620959  0.7497178  0.0083919

 Al 
  0.4907715  0.9885092  0.5251040

 Al 
  0.5014455  0.2328511  0.7617779

 Al 
  0.7489456  0.9988812  0.7485768

 Al 
  0.7460237  0.2579377  0.5046854

 Al 
  0.4832372  0.5056210  0.4895723

 Al 
  0.4939001  0.7357928  0.7643136

 Al 
  0.7507215  0.5070046  0.7462588

 Al 
  0.7448505  0.7324254  0.4879833

