32 
charge = 0 
 Al 
  0.9919249  0.0110440  0.9954037

 Al 
  0.0254851  0.2597409  0.2525754

 Al 
  0.2354549  0.9998069  0.2651144

 Al 
  0.2431018  0.2566346  0.9848634

 Al 
  0.5142580  0.9871727  0.0124363

 Al 
  0.4932305  0.2398507  0.2472501

 Al 
  0.7607680  0.0025370  0.2617977

 Al 
  0.7480818  0.2578325  0.9908099

 Al 
  0.0017586  0.5013230  0.9810566

 Al 
  0.0024714  0.7365378  0.2496164

 Al 
  0.2530333  0.5134127  0.2361331

 Al 
  0.2447688  0.7507314  0.0075442

 Al 
  0.9862507  0.9855836  0.5140352

 Al 
  0.0112457  0.2431105  0.7277561

 Al 
  0.2476697  0.9963022  0.7494381

 Al 
  0.2583523  0.2513824  0.4961994

 Al 
  0.0095503  0.5071284  0.4851542

 Al 
  0.9813821  0.7637233  0.7439298

 Al 
  0.2571321  0.5141948  0.7511534

 Al 
  0.2301940  0.7560207  0.5135649

 Al 
  0.5330615  0.4946216  0.0021373

 Al 
  0.5002983  0.7550010  0.2572892

 Al 
  0.7511980  0.5005693  0.2425808

 Al 
  0.7620662  0.7500012  0.0076679

 Al 
  0.4896416  0.9863583  0.5247673

 Al 
  0.5015717  0.2343213  0.7625934

 Al 
  0.7483701  0.9989060  0.7467638

 Al 
  0.7456599  0.2612816  0.5053067

 Al 
  0.4826605  0.5087013  0.4882716

 Al 
  0.4947243  0.7356641  0.7645884

 Al 
  0.7500297  0.5074650  0.7455386

 Al 
  0.7446042  0.7330404  0.4866628

