32 
charge = 0 
 Al 
  0.9894584  0.0116814  0.9969469

 Al 
  0.0255223  0.2555963  0.2532461

 Al 
  0.2358745  0.9974197  0.2643929

 Al 
  0.2422764  0.2571519  0.9819328

 Al 
  0.5157839  0.9880018  0.0110626

 Al 
  0.4885538  0.2404163  0.2489456

 Al 
  0.7592966  0.0035419  0.2620254

 Al 
  0.7472229  0.2606059  0.9913853

 Al 
  0.0014405  0.5017734  0.9776843

 Al 
  0.0024293  0.7389956  0.2485199

 Al 
  0.2510383  0.5121962  0.2347013

 Al 
  0.2446166  0.7501980  0.0080491

 Al 
  0.9865044  0.9862098  0.5122123

 Al 
  0.0116752  0.2426811  0.7284243

 Al 
  0.2468653  0.9936810  0.7502772

 Al 
  0.2619054  0.2545505  0.4968046

 Al 
  0.0105168  0.5074464  0.4827793

 Al 
  0.9832756  0.7631986  0.7458925

 Al 
  0.2565554  0.5159349  0.7506856

 Al 
  0.2310839  0.7578746  0.5142443

 Al 
  0.5349067  0.4977353  0.0033117

 Al 
  0.4992971  0.7554168  0.2588275

 Al 
  0.7511621  0.5006423  0.2399126

 Al 
  0.7620774  0.7496646  0.0085664

 Al 
  0.4910995  0.9890748  0.5251250

 Al 
  0.5013935  0.2325219  0.7615378

 Al 
  0.7490669  0.9988812  0.7490694

 Al 
  0.7461190  0.2570652  0.5045010

 Al 
  0.4834303  0.5048116  0.4899374

 Al 
  0.4937256  0.7358707  0.7642233

 Al 
  0.7509133  0.5068709  0.7464086

 Al 
  0.7449149  0.7322930  0.4883669

