32 
charge = 0 
 Al 
  0.9858336  0.0126590  0.0001002

 Al 
  0.0238602  0.2481474  0.2539218

 Al 
  0.2373014  0.9926674  0.2624684

 Al 
  0.2414088  0.2578189  0.9774330

 Al 
  0.5176476  0.9898136  0.0083474

 Al 
  0.4809292  0.2416130  0.2516831

 Al 
  0.7562460  0.0054341  0.2620613

 Al 
  0.7472452  0.2639647  0.9928023

 Al 
  0.0009839  0.5024442  0.9721920

 Al 
  0.0019950  0.7445881  0.2462947

 Al 
  0.2480570  0.5091963  0.2324167

 Al 
  0.2446079  0.7500037  0.0079959

 Al 
  0.9871504  0.9886119  0.5074155

 Al 
  0.0117073  0.2428259  0.7302337

 Al 
  0.2451785  0.9893854  0.7529479

 Al 
  0.2676402  0.2599649  0.4987785

 Al 
  0.0116059  0.5071581  0.4799168

 Al 
  0.9876145  0.7605935  0.7504381

 Al 
  0.2546656  0.5177949  0.7497661

 Al 
  0.2339897  0.7604871  0.5144151

 Al 
  0.5348498  0.5040802  0.0049948

 Al 
  0.4971202  0.7560900  0.2613806

 Al 
  0.7519417  0.5001349  0.2365786

 Al 
  0.7615044  0.7495928  0.0098250

 Al 
  0.4944334  0.9940164  0.5243528

 Al 
  0.5006943  0.2304960  0.7591357

 Al 
  0.7498131  0.9989233  0.7536459

 Al 
  0.7470138  0.2494542  0.5025791

 Al 
  0.4858967  0.4977934  0.4934830

 Al 
  0.4928370  0.7372284  0.7631045

 Al 
  0.7527313  0.5054638  0.7470150

 Al 
  0.7454965  0.7315541  0.4922788

