32 
charge = 0 
 Al 
  0.9871430  0.0122964  0.9988157

 Al 
  0.0247364  0.2510680  0.2537152

 Al 
  0.2366455  0.9945820  0.2633013

 Al 
  0.2416663  0.2575937  0.9790889

 Al 
  0.5170363  0.9890562  0.0094377

 Al 
  0.4838102  0.2411230  0.2506819

 Al 
  0.7575095  0.0046879  0.2620996

 Al 
  0.7470410  0.2628744  0.9921996

 Al 
  0.0011398  0.5021979  0.9742575

 Al 
  0.0022177  0.7422504  0.2471907

 Al 
  0.2491523  0.5104809  0.2332768

 Al 
  0.2445721  0.7499777  0.0081456

 Al 
  0.9868719  0.9875118  0.5094735

 Al 
  0.0118002  0.2426538  0.7294627

 Al 
  0.2458703  0.9910029  0.7517450

 Al 
  0.2655240  0.2579018  0.4978751

 Al 
  0.0112692  0.5073858  0.4808611

 Al 
  0.9857915  0.7618162  0.7485384

 Al 
  0.2555183  0.5172318  0.7501436

 Al 
  0.2326729  0.7595701  0.5145005

 Al 
  0.5353497  0.5014925  0.0044057

 Al 
  0.4980211  0.7558450  0.2603918

 Al 
  0.7515036  0.5004133  0.2376553

 Al 
  0.7618113  0.7495384  0.0093844

 Al 
  0.4930313  0.9920796  0.5248441

 Al 
  0.5010111  0.2311185  0.7601282

 Al 
  0.7495706  0.9989035  0.7517982

 Al 
  0.7466425  0.2524355  0.5033909

 Al 
  0.4847582  0.5005198  0.4920227

 Al 
  0.4930523  0.7365625  0.7636107

 Al 
  0.7519962  0.5060628  0.7469209

 Al 
  0.7452638  0.7317633  0.4906341

