32 
charge = 0 
 Al 
  0.9875947  0.0121739  0.9984147

 Al 
  0.0249604  0.2520086  0.2536347

 Al 
  0.2364598  0.9951871  0.2635501

 Al 
  0.2417702  0.2575120  0.9796508

 Al 
  0.5168086  0.9888260  0.0097829

 Al 
  0.4847668  0.2409707  0.2503366

 Al 
  0.7578981  0.0044478  0.2620984

 Al 
  0.7470249  0.2624635  0.9920165

 Al 
  0.0011980  0.5021150  0.9749468

 Al 
  0.0022759  0.7415326  0.2474754

 Al 
  0.2495235  0.5108670  0.2335639

 Al 
  0.2445721  0.7499950  0.0081605

 Al 
  0.9867890  0.9871962  0.5100936

 Al 
  0.0118014  0.2426266  0.7292275

 Al 
  0.2460844  0.9915425  0.7513972

 Al 
  0.2648025  0.2572187  0.4976189

 Al 
  0.0111368  0.5074291  0.4812113

 Al 
  0.9852359  0.7621603  0.7479543

 Al 
  0.2557646  0.5170078  0.7502599

 Al 
  0.2322942  0.7592458  0.5144869

 Al 
  0.5353844  0.5006844  0.0041966

 Al 
  0.4982996  0.7557596  0.2600725

 Al 
  0.7513997  0.5004826  0.2380662

 Al 
  0.7618880  0.7495433  0.0092285

 Al 
  0.4926043  0.9914546  0.5249530

 Al 
  0.5011027  0.2313648  0.7604364

 Al 
  0.7494815  0.9988973  0.7512165

 Al 
  0.7465299  0.2533983  0.5036372

 Al 
  0.4844401  0.5014083  0.4915710

 Al 
  0.4931575  0.7363831  0.7637555

 Al 
  0.7517635  0.5062435  0.7468516

 Al 
  0.7451908  0.7318511  0.4901329

