32 
charge = 0 
 Al 
  0.9842372  0.0131206  0.0019454

 Al 
  0.0222514  0.2441129  0.2541297

 Al 
  0.2384139  0.9899559  0.2611764

 Al 
  0.2412133  0.2580528  0.9753676

 Al 
  0.5182528  0.9909559  0.0068115

 Al 
  0.4771608  0.2423197  0.2528538

 Al 
  0.7543327  0.0064452  0.2618979

 Al 
  0.7478417  0.2650450  0.9937132

 Al 
  0.0008230  0.5027474  0.9695411

 Al 
  0.0015717  0.7480546  0.2450423

 Al 
  0.2466586  0.5072224  0.2312843

 Al 
  0.2447441  0.7502240  0.0075479

 Al 
  0.9875885  0.9903928  0.5043104

 Al 
  0.0113621  0.2432516  0.7313722

 Al 
  0.2441773  0.9873014  0.7548958

 Al 
  0.2701933  0.2626417  0.5002958

 Al 
  0.0118979  0.5066408  0.4789169

 Al 
  0.9903458  0.7585936  0.7532226

 Al 
  0.2532993  0.5182776  0.7491968

 Al 
  0.2361455  0.7615304  0.5139919

 Al 
  0.5332360  0.5078276  0.0056507

 Al 
  0.4958084  0.7563734  0.2627605

 Al 
  0.7528229  0.4996263  0.2355812

 Al 
  0.7609141  0.7498391  0.0103188

 Al 
  0.4965398  0.9966586  0.5233182

 Al 
  0.5002017  0.2299837  0.7577187

 Al 
  0.7501027  0.9989332  0.7562794

 Al 
  0.7475868  0.2453567  0.5013675

 Al 
  0.4878669  0.4941500  0.4956277

 Al 
  0.4928159  0.7384003  0.7622568

 Al 
  0.7537560  0.5045381  0.7468591

 Al 
  0.7458356  0.7314279  0.4947490

