32 
charge = 0 
 Al 
  0.9838758  0.0132295  0.0024170

 Al 
  0.0217823  0.2431031  0.2541706

 Al 
  0.2387320  0.9892703  0.2608274

 Al 
  0.2411935  0.2580949  0.9748911

 Al 
  0.5183605  0.9912591  0.0064254

 Al 
  0.4762549  0.2425004  0.2531001

 Al 
  0.7538191  0.0066890  0.2618360

 Al 
  0.7480385  0.2652431  0.9939545

 Al 
  0.0007933  0.5028167  0.9689186

 Al 
  0.0014430  0.7489580  0.2447305

 Al 
  0.2463257  0.5066940  0.2310096

 Al 
  0.2447960  0.7503094  0.0073944

 Al 
  0.9877098  0.9908779  0.5034961

 Al 
  0.0112358  0.2433865  0.7316655

 Al 
  0.2439186  0.9868088  0.7554317

 Al 
  0.2707514  0.2632741  0.5007252

 Al 
  0.0119400  0.5064786  0.4787176

 Al 
  0.9910648  0.7580479  0.7539392

 Al 
  0.2529281  0.5183493  0.7490421

 Al 
  0.2367432  0.7617507  0.5138310

 Al 
  0.5326692  0.5087929  0.0057868

 Al 
  0.4954718  0.7564328  0.2631132

 Al 
  0.7530939  0.4994790  0.2354228

 Al 
  0.7607346  0.7499332  0.0104203

 Al 
  0.4970954  0.9973095  0.5229951

 Al 
  0.5000730  0.2299193  0.7573623

 Al 
  0.7501733  0.9989295  0.7569502

 Al 
  0.7477452  0.2443382  0.5010507

 Al 
  0.4884399  0.4932701  0.4961883

 Al 
  0.4928617  0.7387369  0.7620155

 Al 
  0.7540097  0.5042882  0.7467675

 Al 
  0.7459247  0.7314267  0.4954025

