32 
charge = 0 
 Al 
  0.9812076  0.0141317  0.0079687

 Al 
  0.0141750  0.2314687  0.2543859

 Al 
  0.2441872  0.9815962  0.2556730

 Al 
  0.2421229  0.2578103  0.9711153

 Al 
  0.5175313  0.9956636  0.0019739

 Al 
  0.4670746  0.2446488  0.2536124

 Al 
  0.7458913  0.0087483  0.2600082

 Al 
  0.7514913  0.2651775  0.9971883

 Al 
  0.0008094  0.5030221  0.9640166

 Al 
  0.9989147  0.7604401  0.2415004

 Al 
  0.2426897  0.4992835  0.2280333

 Al 
  0.2462960  0.7523526  0.0042919

 Al 
  0.9899597  0.9973727  0.4933927

 Al 
  0.0080194  0.2456413  0.7350837

 Al 
  0.2408000  0.9824353  0.7632803

 Al 
  0.2730508  0.2686315  0.5078004

 Al 
  0.0112334  0.5035283  0.4780605

 Al 
  0.0004430  0.7509047  0.7622321

 Al 
  0.2480768  0.5175165  0.7465361

 Al 
  0.2457849  0.7627989  0.5099809

 Al 
  0.5201834  0.5208034  0.0063772

 Al 
  0.4916489  0.7564192  0.2677504

 Al 
  0.7579860  0.4972811  0.2369870

 Al 
  0.7573796  0.7522214  0.0106331

 Al 
  0.5044478  0.0042114  0.5168766

 Al 
  0.4986709  0.2316754  0.7536310

 Al 
  0.7514096  0.9984345  0.7648557

 Al 
  0.7503193  0.2330033  0.4971660

 Al 
  0.4990322  0.4848535  0.5035518

 Al 
  0.4953591  0.7444557  0.7579154

 Al 
  0.7565158  0.5004963  0.7438728

 Al 
  0.7472885  0.7329724  0.5042486

