32 
charge = 0 
 Al 
  0.9814749  0.0140179  0.0067002

 Al 
  0.0163804  0.2341382  0.2543822

 Al 
  0.2425041  0.9832558  0.2571469

 Al 
  0.2416440  0.2580739  0.9715905

 Al 
  0.5182392  0.9944211  0.0029949

 Al 
  0.4689372  0.2441439  0.2540555

 Al 
  0.7482365  0.0084946  0.2607161

 Al 
  0.7505000  0.2656552  0.9963381

 Al 
  0.0007376  0.5031545  0.9645537

 Al 
  0.9997537  0.7575887  0.2421390

 Al 
  0.2435412  0.5012883  0.2286941

 Al 
  0.2457217  0.7516633  0.0052720

 Al 
  0.9891911  0.9957477  0.4958121

 Al 
  0.0091691  0.2450126  0.7343077

 Al 
  0.2415351  0.9831320  0.7611282

 Al 
  0.2735372  0.2678630  0.5056854

 Al 
  0.0116628  0.5044317  0.4778749

 Al 
  0.9980669  0.7526372  0.7603918

 Al 
  0.2492562  0.5180635  0.7473071

 Al 
  0.2432342  0.7628744  0.5112915

 Al 
  0.5243515  0.5178556  0.0064291

 Al 
  0.4924694  0.7566061  0.2665301

 Al 
  0.7564923  0.4978801  0.2359029

 Al 
  0.7584538  0.7514368  0.0108039

 Al 
  0.5025618  0.0027734  0.5188184

 Al 
  0.4989369  0.2307175  0.7543599

 Al 
  0.7509851  0.9986671  0.7630328

 Al 
  0.7495334  0.2354958  0.4980793

 Al 
  0.4956141  0.4863819  0.5016447

 Al 
  0.4943505  0.7427021  0.7591840

 Al 
  0.7560603  0.5016088  0.7449248

 Al 
  0.7468714  0.7322199  0.5019096

