32 
charge = 0 
 Al 
  0.9812918  0.0140896  0.0073722

 Al 
  0.0152703  0.2327311  0.2543896

 Al 
  0.2433370  0.9823635  0.2564093

 Al 
  0.2418643  0.2579612  0.9712935

 Al 
  0.5179348  0.9950436  0.0024578

 Al 
  0.4679323  0.2444087  0.2538897

 Al 
  0.7470707  0.0086580  0.2603807

 Al 
  0.7510049  0.2654522  0.9967724

 Al 
  0.0007685  0.5031125  0.9641924

 Al 
  0.9993453  0.7590664  0.2417888

 Al 
  0.2431018  0.5002698  0.2283451

 Al 
  0.2459940  0.7520024  0.0047844

 Al 
  0.9895587  0.9965942  0.4945448

 Al 
  0.0086134  0.2453356  0.7347173

 Al 
  0.2411490  0.9827261  0.7622234

 Al 
  0.2734060  0.2683234  0.5067410

 Al 
  0.0114685  0.5039825  0.4779367

 Al 
  0.9992946  0.7517264  0.7613744

 Al 
  0.2486362  0.5178172  0.7469271

 Al 
  0.2445213  0.7628694  0.5106492

 Al 
  0.5223071  0.5193852  0.0064205

 Al 
  0.4920251  0.7565319  0.2671526

 Al 
  0.7572385  0.4975731  0.2363930

 Al 
  0.7579254  0.7518217  0.0107408

 Al 
  0.5035332  0.0035481  0.5178593

 Al 
  0.4987860  0.2311569  0.7539577

 Al 
  0.7511881  0.9985595  0.7639944

 Al 
  0.7499220  0.2341691  0.4975979

 Al 
  0.4972897  0.4855304  0.5026224

 Al 
  0.4948307  0.7435696  0.7585577

 Al 
  0.7563153  0.5010556  0.7444124

 Al 
  0.7470756  0.7325627  0.5031026

