32 
charge = 0 
 Al 
  0.9816049  0.0139696  0.0063363

 Al 
  0.0169398  0.2348955  0.2543760

 Al 
  0.2420945  0.9837471  0.2575170

 Al 
  0.2415487  0.2581159  0.9717861

 Al 
  0.5183543  0.9941080  0.0032833

 Al 
  0.4694990  0.2440028  0.2540939

 Al 
  0.7488144  0.0083845  0.2608695

 Al 
  0.7502438  0.2657282  0.9961141

 Al 
  0.0007252  0.5031595  0.9648025

 Al 
  0.9999505  0.7568115  0.2423370

 Al 
  0.2437726  0.5018106  0.2288822

 Al 
  0.2455955  0.7514999  0.0055133

 Al 
  0.9890179  0.9952997  0.4964878

 Al 
  0.0094315  0.2448468  0.7340849

 Al 
  0.2417417  0.9833771  0.7605688

 Al 
  0.2735149  0.2675734  0.5051606

 Al 
  0.0117432  0.5046557  0.4778711

 Al 
  0.9974246  0.7531236  0.7598535

 Al 
  0.2495867  0.5181662  0.7474927

 Al 
  0.2425821  0.7628496  0.5116009

 Al 
  0.5253391  0.5170487  0.0064180

 Al 
  0.4927145  0.7566284  0.2662096

 Al 
  0.7561210  0.4980372  0.2357000

 Al 
  0.7587112  0.7512512  0.0108188

 Al 
  0.5020556  0.0023439  0.5192886

 Al 
  0.4990248  0.2305282  0.7545901

 Al 
  0.7508898  0.9987142  0.7625142

 Al 
  0.7493416  0.2362210  0.4983380

 Al 
  0.4948010  0.4868744  0.5011386

 Al 
  0.4941290  0.7422751  0.7594909

 Al 
  0.7559118  0.5018823  0.7451686

 Al 
  0.7467724  0.7320727  0.5012945

