32 
charge = 0 
 Al 
  0.9814217  0.0140896  0.0091245

 Al 
  0.0114957  0.2289107  0.2543438

 Al 
  0.2464024  0.9802287  0.2538030

 Al 
  0.2429335  0.2572657  0.9711697

 Al 
  0.5160710  0.9972291  0.0009777

 Al 
  0.4655203  0.2451549  0.2524541

 Al 
  0.7428370  0.0086369  0.2588845

 Al 
  0.7526100  0.2642270  0.9981573

 Al 
  0.0009245  0.5025741  0.9643966

 Al 
  0.9977315  0.7634412  0.2410400

 Al 
  0.2417244  0.4969445  0.2274009

 Al 
  0.2471845  0.7532585  0.0030766

 Al 
  0.9911539  0.9990112  0.4910141

 Al 
  0.0063536  0.2463170  0.7358311

 Al 
  0.2400871  0.9822026  0.7657393

 Al 
  0.2712217  0.2687639  0.5104624

 Al 
  0.0104834  0.5023774  0.4786298

 Al 
  0.0029875  0.7492488  0.7638335

 Al 
  0.2469556  0.5165425  0.7454990

 Al 
  0.2488466  0.7623558  0.5082236

 Al 
  0.5145352  0.5238949  0.0061408

 Al 
  0.4910178  0.7559440  0.2691426

 Al 
  0.7598510  0.4966078  0.2388731

 Al 
  0.7559292  0.7532610  0.0101790

 Al 
  0.5064923  0.0054329  0.5143223

 Al 
  0.4985545  0.2332929  0.7531335

 Al 
  0.7520568  0.9980533  0.7665771

 Al 
  0.7513650  0.2307646  0.4963022

 Al 
  0.5036991  0.4838300  0.5056816

 Al 
  0.4968714  0.7467873  0.7562163

 Al 
  0.7567880  0.4990347  0.7424434

 Al 
  0.7478949  0.7343188  0.5069266

