32 
charge = 0 
 Al 
  0.9818412  0.0139597  0.0095886

 Al 
  0.0099116  0.2277684  0.2542931

 Al 
  0.2478058  0.9797906  0.2526323

 Al 
  0.2435325  0.2568140  0.9715385

 Al 
  0.5148532  0.9982117  0.0005037

 Al 
  0.4649485  0.2454086  0.2514591

 Al 
  0.7408928  0.0083362  0.2580602

 Al 
  0.7532016  0.2635018  0.9987030

 Al 
  0.0009900  0.5021336  0.9651997

 Al 
  0.9969370  0.7649671  0.2409336

 Al 
  0.2411465  0.4956067  0.2271175

 Al 
  0.2478169  0.7538142  0.0023724

 Al 
  0.9920400  0.9997772  0.4899176

 Al 
  0.0052176  0.2466536  0.7361900

 Al 
  0.2397666  0.9824006  0.7670808

 Al 
  0.2695077  0.2684236  0.5120650

 Al 
  0.0099253  0.5016695  0.4791372

 Al 
  0.0043067  0.7485261  0.7644275

 Al 
  0.2464791  0.5158061  0.7448245

 Al 
  0.2506361  0.7619140  0.5071185

 Al 
  0.5108992  0.5254727  0.0059205

 Al 
  0.4908656  0.7555072  0.2699136

 Al 
  0.7609611  0.4962440  0.2402554

 Al 
  0.7549861  0.7538946  0.0097792

 Al 
  0.5075590  0.0059032  0.5127147

 Al 
  0.4986189  0.2344834  0.7530469

 Al 
  0.7525222  0.9977823  0.7673246

 Al 
  0.7520407  0.2298550  0.4959284

 Al 
  0.5067348  0.4836110  0.5068412

 Al 
  0.4979098  0.7482959  0.7551124

 Al 
  0.7568091  0.4980855  0.7415611

 Al 
  0.7483355  0.7353844  0.5084389

