32 
charge = 0 
 Al 
  0.9833634  0.0134226  0.0099772

 Al 
  0.0067435  0.2263452  0.2541223

 Al 
  0.2508081  0.9798240  0.2501015

 Al 
  0.2449693  0.2556049  0.9730310

 Al 
  0.5115588  0.0003465  0.9997810

 Al 
  0.4645550  0.2458616  0.2488478

 Al 
  0.7366727  0.0071816  0.2560146

 Al 
  0.7541743  0.2617507  0.9997537

 Al 
  0.0010631  0.5008316  0.9681711

 Al 
  0.9951327  0.7674397  0.2410995

 Al 
  0.2398668  0.4930474  0.2268044

 Al 
  0.2492971  0.7549304  0.0010631

 Al 
  0.9943171  0.0007908  0.4884659

 Al 
  0.0025840  0.2471573  0.7368002

 Al 
  0.2393632  0.9835899  0.7693963

 Al 
  0.2647839  0.2668049  0.5152431

 Al 
  0.0085850  0.5002116  0.4805331

 Al 
  0.0065096  0.7476697  0.7647988

 Al 
  0.2459965  0.5139832  0.7433419

 Al 
  0.2541322  0.7606393  0.5048191

 Al 
  0.5030320  0.5280506  0.0053017

 Al 
  0.4911391  0.7542114  0.2712886

 Al 
  0.7631503  0.4956104  0.2435127

 Al 
  0.7528798  0.7551210  0.0086803

 Al 
  0.5093275  0.0063536  0.5093102

 Al 
  0.4991102  0.2373868  0.7533191

 Al 
  0.7536545  0.9971685  0.7681773

 Al 
  0.7535295  0.2289491  0.4954940

 Al 
  0.5133496  0.4838820  0.5089055

 Al 
  0.5002822  0.7516571  0.7526608

 Al 
  0.7565801  0.4959482  0.7398607

 Al 
  0.7494889  0.7382246  0.5113237

