32 
charge = 0 
 Al 
  0.9848844  0.0128298  0.0098089

 Al 
  0.0046384  0.2260631  0.2539379

 Al 
  0.2529058  0.9805505  0.2482810

 Al 
  0.2460670  0.2545815  0.9745718

 Al 
  0.5087223  0.0019009  0.9994258

 Al 
  0.4648470  0.2461722  0.2467266

 Al 
  0.7336592  0.0060121  0.2543488

 Al 
  0.7546235  0.2604079  0.0004294

 Al 
  0.0010309  0.4996696  0.9711586

 Al 
  0.9937949  0.7686315  0.2414856

 Al 
  0.2388595  0.4914583  0.2268390

 Al 
  0.2503911  0.7556519  0.0003106

 Al 
  0.9962576  0.0010408  0.4880823

 Al 
  0.0005643  0.2473516  0.7372024

 Al 
  0.2392802  0.9849834  0.7705584

 Al 
  0.2608138  0.2650314  0.5172529

 Al 
  0.0075652  0.4992401  0.4817460

 Al 
  0.0076345  0.7475187  0.7644374

 Al 
  0.2460460  0.5125291  0.7422751

 Al 
  0.2563462  0.7595107  0.5032721

 Al 
  0.4974506  0.5292993  0.0047461

 Al 
  0.4918036  0.7529838  0.2720237

 Al 
  0.7645352  0.4952700  0.2459544

 Al 
  0.7513081  0.7558438  0.0077273

 Al 
  0.5101876  0.0063623  0.5069563

 Al 
  0.4997352  0.2396948  0.7538043

 Al 
  0.7545579  0.9967353  0.7682454

 Al 
  0.7546149  0.2289949  0.4954396

 Al 
  0.5180239  0.4844810  0.5100453

 Al 
  0.5020469  0.7541607  0.7508564

 Al 
  0.7562782  0.4943394  0.7389102

 Al 
  0.7505260  0.7407010  0.5131404

