32 
charge = 0 
 Al 
  0.9914806  0.0096951  0.0071927

 Al 
  0.9987364  0.2285073  0.2529565

 Al 
  0.2586877  0.9860044  0.2427454

 Al 
  0.2493305  0.2509034  0.9813623

 Al 
  0.4979902  0.0066853  0.9986300

 Al 
  0.4686736  0.2477229  0.2396973

 Al 
  0.7250136  0.0010618  0.2481795

 Al 
  0.7545777  0.2560133  0.0023563

 Al 
  0.0003069  0.4954086  0.9839958

 Al 
  0.9896787  0.7695881  0.2438221

 Al 
  0.2349327  0.4878471  0.2288253

 Al 
  0.2531954  0.7575479  0.9990372

 Al 
  0.0039676  0.9994542  0.4900500

 Al 
  0.9937045  0.2472749  0.7390748

 Al 
  0.2399250  0.9918185  0.7709284

 Al 
  0.2470249  0.2565306  0.5215744

 Al 
  0.0044639  0.4968393  0.4867841

 Al 
  0.0089983  0.7487117  0.7606554

 Al 
  0.2480112  0.5073969  0.7392196

 Al 
  0.2614264  0.7550369  0.4991758

 Al 
  0.4812559  0.5299255  0.0022363

 Al 
  0.4963764  0.7473566  0.2725781

 Al 
  0.7675363  0.4947503  0.2533315

 Al 
  0.7460980  0.7569427  0.0039936

 Al 
  0.5106294  0.0056656  0.5004703

 Al 
  0.5030296  0.2480187  0.7561643

 Al 
  0.7577781  0.9957378  0.7658470

 Al 
  0.7579476  0.2318264  0.4963046

 Al 
  0.5309527  0.4874957  0.5115638

 Al 
  0.5074934  0.7623756  0.7452156

 Al 
  0.7553945  0.4891070  0.7383954

 Al 
  0.7553797  0.7507500  0.5176365

