32 
charge = 0 
 Al 
  0.9964866  0.0064960  0.0041508

 Al 
  0.9958529  0.2323301  0.2519912

 Al 
  0.2606938  0.9914237  0.2402195

 Al 
  0.2502908  0.2488367  0.9866517

 Al 
  0.4911465  0.0088548  0.9979333

 Al 
  0.4740718  0.2499109  0.2362569

 Al 
  0.7216895  0.9976412  0.2438369

 Al 
  0.7530283  0.2534194  0.0035605

 Al 
  0.9991498  0.4929917  0.9934323

 Al 
  0.9877518  0.7677912  0.2459457

 Al 
  0.2320083  0.4872147  0.2324811

 Al 
  0.2533055  0.7585850  0.9992847

 Al 
  0.0097619  0.9965621  0.4938654

 Al 
  0.9896305  0.2469581  0.7415499

 Al 
  0.2409646  0.9975954  0.7673321

 Al 
  0.2392753  0.2490508  0.5217044

 Al 
  0.0030258  0.4962910  0.4912368

 Al 
  0.0080862  0.7501374  0.7566692

 Al 
  0.2504307  0.5039788  0.7380080

 Al 
  0.2623175  0.7516472  0.4974939

 Al 
  0.4742451  0.5268464  0.9998639

 Al 
  0.5012066  0.7423568  0.2707069

 Al 
  0.7674905  0.4948740  0.2567299

 Al 
  0.7429224  0.7562509  0.0012586

 Al 
  0.5086766  0.0054898  0.4978640

 Al 
  0.5058302  0.2537152  0.7575677

 Al 
  0.7598114  0.9959012  0.7622791

 Al 
  0.7595144  0.2350366  0.4973244

 Al 
  0.5354970  0.4899225  0.5101146

 Al 
  0.5100527  0.7670808  0.7423939

 Al 
  0.7557708  0.4865502  0.7413482

 Al 
  0.7600168  0.7582570  0.5189446

