32 
charge = 0 
 Al 
  0.9960089  0.0068425  0.0044676

 Al 
  0.9960881  0.2319118  0.2520964

 Al 
  0.2605935  0.9908705  0.2403916

 Al 
  0.2502747  0.2490000  0.9861381

 Al 
  0.4917393  0.0087087  0.9980236

 Al 
  0.4734332  0.2496399  0.2365019

 Al 
  0.7218838  0.9979481  0.2442478

 Al 
  0.7532350  0.2536496  0.0034404

 Al 
  0.9992896  0.4931909  0.9925449

 Al 
  0.9878905  0.7680449  0.2457329

 Al 
  0.2322843  0.4872011  0.2320232

 Al 
  0.2533847  0.7584860  0.9992228

 Al 
  0.0092013  0.9968950  0.4934224

 Al 
  0.9899770  0.2469865  0.7412455

 Al 
  0.2408445  0.9970249  0.7678358

 Al 
  0.2399126  0.2498131  0.5218108

 Al 
  0.0031323  0.4962972  0.4907616

 Al 
  0.0082248  0.7500012  0.7570838

 Al 
  0.2501745  0.5043005  0.7380872

 Al 
  0.2623298  0.7519826  0.4976189

 Al 
  0.4747314  0.5272771  0.0001176

 Al 
  0.5006943  0.7428729  0.2709829

 Al 
  0.7675882  0.4948468  0.2564811

 Al 
  0.7432070  0.7563747  0.0015222

 Al 
  0.5089463  0.0054725  0.4980409

 Al 
  0.5055591  0.2531818  0.7574625

 Al 
  0.7596332  0.9958406  0.7626801

 Al 
  0.7594030  0.2347124  0.4972291

 Al 
  0.5352532  0.4896763  0.5103510

 Al 
  0.5098683  0.7666836  0.7426105

 Al 
  0.7556829  0.4867259  0.7409250

 Al 
  0.7595280  0.7575417  0.5188976

