32 
charge = 0 
 Al 
  0.9955274  0.0071828  0.0047832

 Al 
  0.9963331  0.2315009  0.2522004

 Al 
  0.2604723  0.9903185  0.2405809

 Al 
  0.2502401  0.2491721  0.9856220

 Al 
  0.4923519  0.0085478  0.9981090

 Al 
  0.4728194  0.2493812  0.2367692

 Al 
  0.7221066  0.9982637  0.2446636

 Al 
  0.7534305  0.2538859  0.0033216

 Al 
  0.9994233  0.4933976  0.9916452

 Al 
  0.9880402  0.7682837  0.2455200

 Al 
  0.2325640  0.4872036  0.2315875

 Al 
  0.2534441  0.7583870  0.9991696

 Al 
  0.0086382  0.9972180  0.4929929

 Al 
  0.9903359  0.2470150  0.7409559

 Al 
  0.2407294  0.9964519  0.7683085

 Al 
  0.2405784  0.2505705  0.5218912

 Al 
  0.0032461  0.4963133  0.4902950

 Al 
  0.0083560  0.7498639  0.7574947

 Al 
  0.2499220  0.5046248  0.7381751

 Al 
  0.2623224  0.7523180  0.4977513

 Al 
  0.4752611  0.5276818  0.0003676

 Al 
  0.5001893  0.7433840  0.2712378

 Al 
  0.7676650  0.4948233  0.2562138

 Al 
  0.7434978  0.7564873  0.0017870

 Al 
  0.5092013  0.0054626  0.4982352

 Al 
  0.5052869  0.2526422  0.7573499

 Al 
  0.7594500  0.9957910  0.7630724

 Al 
  0.7592830  0.2343881  0.4971313

 Al 
  0.5349649  0.4894325  0.5105675

 Al 
  0.5096691  0.7662715  0.7428407

 Al 
  0.7556062  0.4869190  0.7405289

 Al 
  0.7590441  0.7568202  0.5188308

