32 
charge = 0 
 Al 
  0.9940523  0.0081667  0.0057151

 Al 
  0.9971338  0.2303091  0.2524949

 Al 
  0.2599748  0.9886788  0.2412579

 Al 
  0.2500285  0.2497488  0.9840540

 Al 
  0.4943122  0.0079699  0.9983305

 Al 
  0.4711116  0.2486795  0.2377023

 Al 
  0.7229580  0.9992537  0.2459383

 Al 
  0.7539491  0.2546272  0.0029689

 Al 
  0.9997933  0.4940746  0.9888793

 Al 
  0.9885612  0.7689025  0.2448827

 Al 
  0.2334253  0.4873100  0.2304069

 Al 
  0.2535023  0.7580850  0.9990533

 Al 
  0.0069242  0.9981325  0.4917813

 Al 
  0.9914942  0.2471103  0.7401651

 Al 
  0.2404027  0.9947267  0.7695312

 Al 
  0.2427553  0.2528254  0.5219766

 Al 
  0.0036360  0.4964247  0.4889399

 Al 
  0.0086889  0.7494369  0.7587063

 Al 
  0.2491783  0.5056222  0.7384907

 Al 
  0.2621702  0.7533241  0.4982031

 Al 
  0.4771286  0.5287325  0.0010928

 Al 
  0.4987105  0.7448951  0.2718888

 Al 
  0.7677751  0.4947688  0.2552931

 Al 
  0.7444112  0.7567509  0.0025939

 Al 
  0.5098658  0.0054849  0.4989208

 Al 
  0.5044540  0.2509764  0.7569613

 Al 
  0.7588659  0.9957007  0.7641887

 Al 
  0.7588597  0.2334142  0.4968257

 Al 
  0.5338288  0.4887085  0.5111009

 Al 
  0.5089760  0.7649386  0.7436167

 Al 
  0.7554416  0.4876095  0.7395141

 Al 
  0.7576296  0.7546074  0.5185251

