32 
charge = 0 
 Al 
  0.9988132  0.0046520  0.0025382

 Al 
  0.9947948  0.2345144  0.2514133

 Al 
  0.2608769  0.9942441  0.2396317

 Al 
  0.2500817  0.2481696  0.9892146

 Al 
  0.4884647  0.0093498  0.9973603

 Al 
  0.4776657  0.2514962  0.2353448

 Al 
  0.7211586  0.9962044  0.2418197

 Al 
  0.7518229  0.2523254  0.0041929

 Al 
  0.9983516  0.4921155  0.9977563

 Al 
  0.9872246  0.7662925  0.2470100

 Al 
  0.2306928  0.4875229  0.2351381

 Al 
  0.2526088  0.7590800  0.9996881

 Al 
  0.0125316  0.9947564  0.4962762

 Al 
  0.9880872  0.2468529  0.7433147

 Al 
  0.2416291  0.0004418  0.7643161

 Al 
  0.2364871  0.2451747  0.5207824

 Al 
  0.0025902  0.4964123  0.4937874

 Al 
  0.0072892  0.7507710  0.7545369

 Al 
  0.2517462  0.5023934  0.7377197

 Al 
  0.2619709  0.7499394  0.4969581

 Al 
  0.4724296  0.5242723  0.9985199

 Al 
  0.5038686  0.7396911  0.2690263

 Al 
  0.7667034  0.4950423  0.2577075

 Al 
  0.7415747  0.7554515  0.9999468

 Al 
  0.5070789  0.0057200  0.4971870

 Al 
  0.5071407  0.2563041  0.7579650

 Al 
  0.7606208  0.9963665  0.7601233

 Al 
  0.7599265  0.2366504  0.4977588

 Al 
  0.5360960  0.4912034  0.5086617

 Al 
  0.5107569  0.7688592  0.7414930

 Al 
  0.7563660  0.4859759  0.7438963

 Al 
  0.7625501  0.7617519  0.5189137

