32 
charge = 0 
 Al 
  0.9983540  0.0050369  0.0028637

 Al 
  0.9949928  0.2340664  0.2515358

 Al 
  0.2608831  0.9936723  0.2397121

 Al 
  0.2501634  0.2482835  0.9887011

 Al 
  0.4889634  0.0092817  0.9974927

 Al 
  0.4768898  0.2511472  0.2354846

 Al 
  0.7212069  0.9964779  0.2422182

 Al 
  0.7520878  0.2525382  0.0040604

 Al 
  0.9985248  0.4922751  0.9969049

 Al 
  0.9873076  0.7666229  0.2467972

 Al 
  0.2309465  0.4874301  0.2345552

 Al 
  0.2527882  0.7589810  0.9995953

 Al 
  0.0119808  0.9951364  0.4957688

 Al 
  0.9883706  0.2468690  0.7429273

 Al 
  0.2414856  0.9998738  0.7649869

 Al 
  0.2369932  0.2459594  0.5210200

 Al 
  0.0026657  0.4963690  0.4932516

 Al 
  0.0074600  0.7506510  0.7549725

 Al 
  0.2514789  0.5027103  0.7377630

 Al 
  0.2620761  0.7502871  0.4970558

 Al 
  0.4727142  0.5248441  0.9987996

 Al 
  0.5033216  0.7402369  0.2694037

 Al 
  0.7669002  0.4950052  0.2575467

 Al 
  0.7418346  0.7556359  0.0002104

 Al 
  0.5074316  0.0056544  0.4972972

 Al 
  0.5068846  0.2557955  0.7579031

 Al 
  0.7604698  0.9962502  0.7605750

 Al 
  0.7598621  0.2363286  0.4976783

 Al 
  0.5360576  0.4909386  0.5089872

 Al 
  0.5106443  0.7685300  0.7416502

 Al 
  0.7562262  0.4860490  0.7433283

 Al 
  0.7620316  0.7610626  0.5189570

