32 
charge = 0 
 Al 
  0.0014851  0.0021571  0.0005742

 Al 
  0.9937033  0.2372865  0.2506002

 Al 
  0.2603906  0.9977674  0.2395661

 Al 
  0.2491399  0.2477142  0.9923234

 Al 
  0.4858658  0.0094364  0.9963442

 Al 
  0.4829736  0.2539602  0.2349661

 Al 
  0.7214890  0.9947057  0.2394696

 Al 
  0.7500062  0.2510792  0.0050752

 Al 
  0.9971598  0.4913074  0.0027585

 Al 
  0.9869499  0.7639906  0.2482835

 Al 
  0.2293203  0.4884139  0.2392184

 Al 
  0.2511113  0.7596456  0.0003527

 Al 
  0.0157888  0.9922974  0.4995631

 Al 
  0.9866665  0.2468294  0.7460373

 Al 
  0.2426278  0.0038352  0.7596035

 Al 
  0.2339674  0.2404151  0.5187738

 Al 
  0.0022412  0.4968603  0.4973392

 Al 
  0.0061940  0.7513836  0.7518650

 Al 
  0.2533835  0.5004740  0.7375959

 Al 
  0.2610168  0.7477612  0.4964346

 Al 
  0.4714791  0.5202638  0.9967390

 Al 
  0.5072868  0.7362754  0.2663210

 Al 
  0.7651020  0.4953121  0.2583226

 Al 
  0.7401106  0.7540716  0.9983367

 Al 
  0.5046248  0.0063252  0.4967477

 Al 
  0.5085986  0.2592644  0.7581234

 Al 
  0.7614066  0.9973430  0.7572039

 Al 
  0.7601344  0.2385402  0.4981647

 Al 
  0.5355168  0.4929150  0.5063883

 Al 
  0.5111220  0.7705473  0.7407690

 Al 
  0.7573870  0.4860341  0.7478999

 Al 
  0.7657505  0.7657839  0.5182380

