32 
charge = 0 
 Al 
  0.0010519  0.0025939  0.0009009

 Al 
  0.9938753  0.2368187  0.2507438

 Al 
  0.2605255  0.9971709  0.2395253

 Al 
  0.2493515  0.2477625  0.9918024

 Al 
  0.4862494  0.0094612  0.9965423

 Al 
  0.4820120  0.2535048  0.2349735

 Al 
  0.7213591  0.9949371  0.2398545

 Al 
  0.7503341  0.2512846  0.0049181

 Al 
  0.9973764  0.4914225  0.0019393

 Al 
  0.9869672  0.7644114  0.2480731

 Al 
  0.2295270  0.4882258  0.2384672

 Al 
  0.2514096  0.7595577  0.0002314

 Al 
  0.0152554  0.9927256  0.4989914

 Al 
  0.9868682  0.2468244  0.7455349

 Al 
  0.2424434  0.0032746  0.7604673

 Al 
  0.2343250  0.2412084  0.5191797

 Al 
  0.0022883  0.4967650  0.4967068

 Al 
  0.0063809  0.7512957  0.7523130

 Al 
  0.2531088  0.5007982  0.7375996

 Al 
  0.2612111  0.7481362  0.4965175

 Al 
  0.4715497  0.5209990  0.9970472

 Al 
  0.5067039  0.7368596  0.2668234

 Al 
  0.7654176  0.4952626  0.2582607

 Al 
  0.7403421  0.7543352  0.9986102

 Al 
  0.5050728  0.0061990  0.4967972

 Al 
  0.5083672  0.2587842  0.7581234

 Al 
  0.7612915  0.9971449  0.7577137

 Al 
  0.7601208  0.2382308  0.4981065

 Al 
  0.5357099  0.4926142  0.5068016

 Al 
  0.5110985  0.7703010  0.7408656

 Al 
  0.7571977  0.4859611  0.7471647

 Al 
  0.7652109  0.7651267  0.5184026

