32 
charge = 0 
 Al 
  0.0027437  0.0008032  0.9996077

 Al 
  0.9932083  0.2386775  0.2501609

 Al 
  0.2598597  0.9995743  0.2398198

 Al 
  0.2483714  0.2476424  0.9938827

 Al 
  0.4848386  0.0092743  0.9956859

 Al 
  0.4860292  0.2554230  0.2350837

 Al 
  0.7220583  0.9940647  0.2383409

 Al 
  0.7489679  0.2504641  0.0055703

 Al 
  0.9964754  0.4910178  0.0051619

 Al 
  0.9869635  0.7626504  0.2489010

 Al 
  0.2287721  0.4890698  0.2416316

 Al 
  0.2501064  0.7598782  0.0007339

 Al 
  0.0173519  0.9909893  0.5013069

 Al 
  0.9861641  0.2468739  0.7476536

 Al 
  0.2432330  0.0054886  0.7568561

 Al 
  0.2330516  0.2380748  0.5173853

 Al 
  0.0021175  0.4971858  0.4993243

 Al 
  0.0056420  0.7515952  0.7505371

 Al 
  0.2542028  0.4994963  0.7376256

 Al 
  0.2603683  0.7466078  0.4961871

 Al 
  0.4714655  0.5179174  0.9957985

 Al 
  0.5090478  0.7345045  0.2646961

 Al 
  0.7640513  0.4954693  0.2584092

 Al 
  0.7394584  0.7532090  0.9975063

 Al 
  0.5032016  0.0067633  0.4966425

 Al 
  0.5092533  0.2606591  0.7580516

 Al 
  0.7617049  0.9980261  0.7556408

 Al 
  0.7601282  0.2394436  0.4983083

 Al 
  0.5347198  0.4938518  0.5050950

 Al 
  0.5111034  0.7711920  0.7405364

 Al 
  0.7579885  0.4864190  0.7502512

 Al 
  0.7673506  0.7676947  0.5176105

