32 
charge = 0 
 Al 
  0.0039095  0.9994084  0.9986770

 Al 
  0.9927466  0.2400166  0.2497215

 Al 
  0.2591542  0.0013762  0.2402666

 Al 
  0.2474184  0.2476771  0.9954148

 Al 
  0.4840156  0.0089835  0.9949334

 Al 
  0.4892827  0.2570058  0.2354091

 Al 
  0.7228887  0.9935127  0.2372692

 Al 
  0.7478763  0.2498503  0.0060839

 Al 
  0.9957527  0.4908198  0.0074464

 Al 
  0.9870823  0.7612111  0.2494876

 Al 
  0.2283600  0.4898520  0.2442528

 Al 
  0.2489666  0.7600453  0.0011311

 Al 
  0.0188184  0.9896775  0.5030481

 Al 
  0.9858250  0.2469618  0.7494109

 Al 
  0.2439174  0.0070702  0.7539429

 Al 
  0.2323771  0.2358596  0.5157480

 Al 
  0.0020160  0.4975571  0.5014182

 Al 
  0.0051223  0.7517190  0.7492785

 Al 
  0.2549960  0.4985174  0.7377184

 Al 
  0.2596456  0.7454198  0.4959346

 Al 
  0.4717328  0.5154077  0.9948530

 Al 
  0.5107854  0.7327397  0.2629239

 Al 
  0.7628669  0.4956388  0.2583610

 Al 
  0.7388830  0.7522462  0.9966611

 Al 
  0.5016880  0.0072793  0.4965930

 Al 
  0.5098361  0.2619561  0.7578684

 Al 
  0.7619214  0.9988404  0.7540555

 Al 
  0.7600564  0.2402987  0.4984085

 Al 
  0.5336110  0.4948307  0.5037535

 Al 
  0.5109487  0.7716833  0.7403804

 Al 
  0.7586196  0.4870539  0.7527697

 Al 
  0.7688803  0.7694792  0.5167813

