32 
charge = 0 
 Al 
  0.0049453  0.9980137  0.9978070

 Al 
  0.9923246  0.2412529  0.2493020

 Al 
  0.2582979  0.0031397  0.2408940

 Al 
  0.2463071  0.2478157  0.9968875

 Al 
  0.4834092  0.0085825  0.9941092

 Al 
  0.4926402  0.2586629  0.2359363

 Al 
  0.7239604  0.9930647  0.2362791

 Al 
  0.7467687  0.2492401  0.0065962

 Al 
  0.9950188  0.4907257  0.0095577

 Al 
  0.9873051  0.7597124  0.2500260

 Al 
  0.2281162  0.4907368  0.2470199

 Al 
  0.2477353  0.7601183  0.0015247

 Al 
  0.0201401  0.9884139  0.5047164

 Al 
  0.9856678  0.2470979  0.7512685

 Al 
  0.2446797  0.0085355  0.7509764

 Al 
  0.2319477  0.2338634  0.5138916

 Al 
  0.0019244  0.4979531  0.5035704

 Al 
  0.0046631  0.7517375  0.7481461

 Al 
  0.2557386  0.4975533  0.7378756

 Al 
  0.2588906  0.7442181  0.4956698

 Al 
  0.4722489  0.5128075  0.9939347

 Al 
  0.5124425  0.7310356  0.2610465

 Al 
  0.7615910  0.4958170  0.2581902

 Al 
  0.7384065  0.7512116  0.9958121

 Al 
  0.5001312  0.0078560  0.4965806

 Al 
  0.5103287  0.2631169  0.7575702

 Al 
  0.7620440  0.9997735  0.7525011

 Al 
  0.7599240  0.2410908  0.4984667

 Al 
  0.5322261  0.4958307  0.5024244

 Al 
  0.5106591  0.7720076  0.7402901

 Al 
  0.7592458  0.4879325  0.7553747

 Al 
  0.7702700  0.7710831  0.5157566

