32 
charge = 0 
 Al 
  0.0055455  0.9971053  0.9972724

 Al 
  0.9920697  0.2419967  0.2490434

 Al 
  0.2576593  0.0042745  0.2414002

 Al 
  0.2454977  0.2479605  0.9978194

 Al 
  0.4831258  0.0082644  0.9935337

 Al 
  0.4948814  0.2597792  0.2363905

 Al 
  0.7247921  0.9928259  0.2356765

 Al 
  0.7460410  0.2488379  0.0069242

 Al 
  0.9945399  0.4907245  0.0108460

 Al 
  0.9875093  0.7586988  0.2503502

 Al 
  0.2280593  0.4913705  0.2489085

 Al 
  0.2468900  0.7601035  0.0017771

 Al 
  0.0209173  0.9876219  0.5057534

 Al 
  0.9856703  0.2472155  0.7525382

 Al 
  0.2452292  0.0094265  0.7490285

 Al 
  0.2317967  0.2327001  0.5125489

 Al 
  0.0018625  0.4982179  0.5050121

 Al 
  0.0044032  0.7516856  0.7474877

 Al 
  0.2561928  0.4969296  0.7380142

 Al 
  0.2583919  0.7434211  0.4954854

 Al 
  0.4727117  0.5110663  0.9933543

 Al 
  0.5134733  0.7299626  0.2597594

 Al 
  0.7607123  0.4959371  0.2580194

 Al 
  0.7381516  0.7504975  0.9952515

 Al 
  0.4990966  0.0082620  0.4965819

 Al 
  0.5106022  0.2637988  0.7573066

 Al 
  0.7620687  0.0004492  0.7515074

 Al 
  0.7598077  0.2415771  0.4984852

 Al 
  0.5311742  0.4964977  0.5015729

 Al 
  0.5103968  0.7721251  0.7402629

 Al 
  0.7596468  0.4886429  0.7571185

 Al 
  0.7710844  0.7720261  0.5149720

