32 
charge = 0 
 Al 
  0.0058153  0.9966623  0.9970199

 Al 
  0.9919509  0.2423395  0.2489221

 Al 
  0.2573251  0.0048253  0.2416749

 Al 
  0.2450770  0.2480459  0.9982687

 Al 
  0.4830182  0.0080937  0.9932404

 Al 
  0.4959915  0.2603336  0.2366467

 Al 
  0.7252388  0.9927244  0.2353943

 Al 
  0.7456834  0.2486387  0.0070801

 Al 
  0.9943060  0.4907430  0.0114499

 Al 
  0.9876269  0.7581914  0.2505012

 Al 
  0.2280630  0.4916960  0.2498564

 Al 
  0.2464655  0.7600738  0.0018997

 Al 
  0.0212712  0.9872469  0.5062423

 Al 
  0.9857037  0.2472836  0.7531756

 Al 
  0.2455175  0.0098423  0.7480768

 Al 
  0.2317596  0.2321766  0.5118509

 Al 
  0.0018304  0.4983466  0.5057287

 Al 
  0.0042894  0.7516398  0.7471932

 Al 
  0.2564056  0.4966264  0.7380934

 Al 
  0.2581469  0.7430251  0.4953901

 Al 
  0.4729729  0.5102025  0.9930758

 Al 
  0.5139597  0.7294503  0.2591109

 Al 
  0.7602705  0.4959977  0.2579192

 Al 
  0.7380451  0.7501374  0.9949730

 Al 
  0.4985855  0.0084686  0.4965831

 Al 
  0.5107222  0.2641082  0.7571568

 Al 
  0.7620638  0.0008019  0.7510297

 Al 
  0.7597421  0.2418073  0.4984889

 Al 
  0.5306148  0.4968294  0.5011633

 Al 
  0.5102470  0.7721536  0.7402567

 Al 
  0.7598374  0.4890315  0.7579823

 Al 
  0.7714519  0.7724556  0.5145525

