32 
charge = 0 
 Al 
  0.0060641  0.9962279  0.9967786

 Al 
  0.9918370  0.2426625  0.2488082

 Al 
  0.2569811  0.0053636  0.2419633

 Al 
  0.2446475  0.2481412  0.9987055

 Al 
  0.4829340  0.0079154  0.9929471

 Al 
  0.4970905  0.2608844  0.2369202

 Al 
  0.7257054  0.9926365  0.2351257

 Al 
  0.7453332  0.2484407  0.0072311

 Al 
  0.9940783  0.4907740  0.0120254

 Al 
  0.9877543  0.7576865  0.2506435

 Al 
  0.2280902  0.4920251  0.2508044

 Al 
  0.2460423  0.7600292  0.0020185

 Al 
  0.0216004  0.9868868  0.5067101

 Al 
  0.9857581  0.2473566  0.7538142

 Al 
  0.2458121  0.0102384  0.7471462

 Al 
  0.2317460  0.2316952  0.5111368

 Al 
  0.0017945  0.4984741  0.5064403

 Al 
  0.0041854  0.7515804  0.7469234

 Al 
  0.2566086  0.4963269  0.7381788

 Al 
  0.2579080  0.7426340  0.4952923

 Al 
  0.4732538  0.5093448  0.9928085

 Al 
  0.5144263  0.7289565  0.2584612

 Al 
  0.7598300  0.4960596  0.2578115

 Al 
  0.7379536  0.7497760  0.9946970

 Al 
  0.4980818  0.0086778  0.4965843

 Al 
  0.5108299  0.2643978  0.7569935

 Al 
  0.7620464  0.0011621  0.7505643

 Al 
  0.7596716  0.2420289  0.4984902

 Al 
  0.5300369  0.4971573  0.5007673

 Al 
  0.5100837  0.7721635  0.7402554

 Al 
  0.7600218  0.4894399  0.7588374

 Al 
  0.7717922  0.7728565  0.5141156

