32 
charge = 0 
 Al 
  0.0068474  0.9945919  0.9959222

 Al 
  0.9914435  0.2437392  0.2484221

 Al 
  0.2555356  0.0073858  0.2432219

 Al 
  0.2428741  0.2485904  0.0003292

 Al 
  0.4828028  0.0071506  0.9917764

 Al 
  0.5013192  0.2630105  0.2381813

 Al 
  0.7277400  0.9923977  0.2341926

 Al 
  0.7440052  0.2476635  0.0077645

 Al 
  0.9932392  0.4910252  0.0140476

 Al 
  0.9883607  0.7556990  0.2511324

 Al 
  0.2284256  0.4933716  0.2545530

 Al 
  0.2443864  0.7596963  0.0024566

 Al 
  0.0226573  0.9856208  0.5083325

 Al 
  0.9861863  0.2477043  0.7563425

 Al 
  0.2470695  0.0116046  0.7436785

 Al 
  0.2319229  0.2302250  0.5081444

 Al 
  0.0016249  0.4989419  0.5092198

 Al 
  0.0038884  0.7512140  0.7461066

 Al 
  0.2573053  0.4951958  0.7385798

 Al 
  0.2570244  0.7411143  0.4948889

 Al 
  0.4745396  0.5060183  0.9918445

 Al 
  0.5160648  0.7271942  0.2558586

 Al 
  0.7580949  0.4963046  0.2573140

 Al 
  0.7377296  0.7483454  0.9936253

 Al 
  0.4961586  0.0095107  0.4965670

 Al 
  0.5111517  0.2653371  0.7562163

 Al 
  0.7618596  0.0026620  0.7488553

 Al 
  0.7593473  0.2428345  0.4984691

 Al 
  0.5275605  0.4984394  0.4993391

 Al 
  0.5093176  0.7720051  0.7402839

 Al 
  0.7606727  0.4912566  0.7621318

 Al 
  0.7728417  0.7741523  0.5122061

