32 
charge = 0 
 Al 
  0.0072125  0.9934793  0.9953926

 Al 
  0.9912108  0.2443208  0.2482154

 Al 
  0.2544008  0.0087533  0.2442391

 Al 
  0.2415103  0.2489864  0.0014232

 Al 
  0.4828994  0.0065368  0.9909237

 Al 
  0.5042758  0.2644931  0.2392852

 Al 
  0.7294230  0.9923296  0.2336407

 Al 
  0.7430969  0.2470954  0.0080751

 Al 
  0.9927058  0.4913457  0.0152814

 Al 
  0.9889152  0.7542510  0.2514145

 Al 
  0.2289095  0.4943852  0.2572905

 Al 
  0.2432107  0.7592731  0.0027462

 Al 
  0.0231659  0.9848671  0.5092731

 Al 
  0.9867234  0.2480261  0.7581951

 Al 
  0.2480954  0.0124029  0.7414002

 Al 
  0.2322694  0.2296272  0.5057720

 Al 
  0.0014566  0.4992364  0.5112210

 Al 
  0.0037894  0.7508069  0.7457824

 Al 
  0.2577014  0.4944124  0.7389337

 Al 
  0.2564527  0.7400364  0.4945721

 Al 
  0.4756547  0.5036582  0.9912418

 Al 
  0.5170375  0.7261175  0.2539156

 Al 
  0.7568511  0.4964903  0.2568883

 Al 
  0.7377135  0.7473071  0.9928556

 Al 
  0.4948418  0.0101208  0.4965125

 Al 
  0.5112878  0.2658136  0.7554985

 Al 
  0.7615935  0.0038327  0.7477377

 Al 
  0.7590664  0.2433654  0.4984382

 Al 
  0.5255581  0.4993614  0.4984530

 Al 
  0.5086332  0.7716870  0.7403309

 Al 
  0.7610527  0.4927763  0.7644349

 Al 
  0.7732847  0.7748045  0.5106183

