32 
charge = 0 
 Al 
  0.0071246  0.9904151  0.9941946

 Al 
  0.9907505  0.2450163  0.2480892

 Al 
  0.2503515  0.0123781  0.2477563

 Al 
  0.2368955  0.2505532  0.0045691

 Al 
  0.4841864  0.0043401  0.9883694

 Al 
  0.5127370  0.2685832  0.2439793

 Al 
  0.7359995  0.9926625  0.2326692

 Al 
  0.7405574  0.2452453  0.0084315

 Al 
  0.9916564  0.4932553  0.0179843

 Al 
  0.9914707  0.7495792  0.2519108

 Al 
  0.2319415  0.4976499  0.2659918

 Al 
  0.2397951  0.7566494  0.0035308

 Al 
  0.0231041  0.9835973  0.5107272

 Al 
  0.9898743  0.2495780  0.7641379

 Al 
  0.2521360  0.0138471  0.7359698

 Al 
  0.2345329  0.2309750  0.4970558

 Al 
  0.0005383  0.4997649  0.5174979

 Al 
  0.0041842  0.7486659  0.7464544

 Al 
  0.2582013  0.4920932  0.7403953

 Al 
  0.2551247  0.7368979  0.4934681

 Al 
  0.4803537  0.4964952  0.9899906

 Al 
  0.5186464  0.7242030  0.2472464

 Al 
  0.7531917  0.4971487  0.2552671

 Al 
  0.7385266  0.7441909  0.9905277

 Al 
  0.4913989  0.0119808  0.4958542

 Al 
  0.5112284  0.2660722  0.7521051

 Al 
  0.7599030  0.0079278  0.7448493

 Al 
  0.7578833  0.2449050  0.4983429

 Al 
  0.5179348  0.5022672  0.4967464

 Al 
  0.5057287  0.7693468  0.7405240

 Al 
  0.7615056  0.4986214  0.7710212

 Al 
  0.7725335  0.7750953  0.5043414

