32 
charge = 0 
 Al 
  0.0074130  0.9918346  0.9946970

 Al 
  0.9909274  0.2448889  0.2480422

 Al 
  0.2524318  0.0107458  0.2459977

 Al 
  0.2392122  0.2497277  0.0030642

 Al 
  0.4833709  0.0054676  0.9895822

 Al 
  0.5087644  0.2667096  0.2414225

 Al 
  0.7325095  0.9923989  0.2329922

 Al 
  0.7417405  0.2461685  0.0083944

 Al 
  0.9920301  0.4921353  0.0168692

 Al 
  0.9900413  0.7519058  0.2517388

 Al 
  0.2301495  0.4960485  0.2617061

 Al 
  0.2414027  0.7582100  0.0031644

 Al 
  0.0234753  0.9839934  0.5103138

 Al 
  0.9880291  0.2487006  0.7611975

 Al 
  0.2499839  0.0133372  0.7382753

 Al 
  0.2331976  0.2296409  0.5015804

 Al 
  0.0010779  0.4995928  0.5144139

 Al 
  0.0038525  0.7498837  0.7457861

 Al 
  0.2581122  0.4932107  0.7396094

 Al 
  0.2556854  0.7383706  0.4940238

 Al 
  0.4777981  0.4999666  0.9904732

 Al 
  0.5181612  0.7248267  0.2506510

 Al 
  0.7549205  0.4968046  0.2561098

 Al 
  0.7379573  0.7456722  0.9916440

 Al 
  0.4929286  0.0110886  0.4962935

 Al 
  0.5113484  0.2661947  0.7540171

 Al 
  0.7609104  0.0058462  0.7461574

 Al 
  0.7585243  0.2441575  0.4983813

 Al 
  0.5219531  0.5008354  0.4973566

 Al 
  0.5073016  0.7707737  0.7404287

 Al 
  0.7614450  0.4955584  0.7679348

 Al 
  0.7733466  0.7753032  0.5076791

