32 
charge = 0 
 Al 
  0.0074118  0.9921440  0.9948196

 Al 
  0.9909745  0.2448134  0.2480595

 Al 
  0.2528340  0.0103757  0.2456438

 Al 
  0.2396738  0.2495718  0.0027511

 Al 
  0.4832471  0.0056854  0.9898421

 Al 
  0.5079093  0.2662925  0.2409646

 Al 
  0.7318623  0.9923680  0.2330961

 Al 
  0.7419967  0.2463529  0.0083511

 Al 
  0.9921415  0.4919509  0.0165932

 Al 
  0.9897938  0.7523699  0.2516868

 Al 
  0.2298587  0.4957205  0.2608349

 Al 
  0.2417492  0.7584600  0.0030852

 Al 
  0.0234667  0.9841295  0.5101567

 Al 
  0.9877259  0.2485508  0.7606034

 Al 
  0.2495854  0.0131862  0.7388335

 Al 
  0.2329786  0.2295344  0.5024442

 Al 
  0.0011645  0.4995359  0.5137864

 Al 
  0.0038179  0.7500928  0.7457316

 Al 
  0.2580553  0.4934434  0.7394671

 Al 
  0.2558203  0.7386899  0.4941340

 Al 
  0.4773390  0.5006831  0.9906044

 Al 
  0.5179867  0.7250334  0.2513106

 Al 
  0.7552906  0.4967403  0.2562720

 Al 
  0.7378830  0.7459891  0.9918791

 Al 
  0.4932813  0.0109005  0.4963529

 Al 
  0.5113509  0.2661589  0.7543451

 Al 
  0.7610712  0.0054378  0.7464482

 Al 
  0.7586407  0.2440052  0.4983912

 Al 
  0.5227031  0.5005458  0.4975373

 Al 
  0.5075863  0.7709952  0.7404089

 Al 
  0.7613918  0.4949792  0.7672689

 Al 
  0.7734023  0.7752611  0.5082966

