32 
charge = 0 
 Al 
  0.0070096  0.9901552  0.9941129

 Al 
  0.9907245  0.2449941  0.2481263

 Al 
  0.2499196  0.0126590  0.2481003

 Al 
  0.2364326  0.2507277  0.0048624

 Al 
  0.4843869  0.0041075  0.9881442

 Al 
  0.5134709  0.2689124  0.2445485

 Al 
  0.7367519  0.9927380  0.2326432

 Al 
  0.7403408  0.2450597  0.0084006

 Al 
  0.9916217  0.4935189  0.0181600

 Al 
  0.9917987  0.7491102  0.2519306

 Al 
  0.2323697  0.4979593  0.2668358

 Al 
  0.2395005  0.7562695  0.0036001

 Al 
  0.0229469  0.9835775  0.5107383

 Al 
  0.9903124  0.2497810  0.7647233

 Al 
  0.2526014  0.0139065  0.7356034

 Al 
  0.2348485  0.2314069  0.4961091

 Al 
  0.0004047  0.4997760  0.5181068

 Al 
  0.0042807  0.7483875  0.7466660

 Al 
  0.2581803  0.4918754  0.7405685

 Al 
  0.2550344  0.7366331  0.4933592

 Al 
  0.4809205  0.4958170  0.9899287

 Al 
  0.5186624  0.7241634  0.2465373

 Al 
  0.7528749  0.4972241  0.2550926

 Al 
  0.7386800  0.7439186  0.9903173

 Al 
  0.4911440  0.0121479  0.4957329

 Al 
  0.5111851  0.2659868  0.7516620

 Al 
  0.7596604  0.0083523  0.7446129

 Al 
  0.7577422  0.2450572  0.4983417

 Al 
  0.5170734  0.5025531  0.4966846

 Al 
  0.5053846  0.7689941  0.7405401

 Al 
  0.7614747  0.4992637  0.7715868

 Al 
  0.7722625  0.7749691  0.5036223

