32 
charge = 0 
 Al 
  0.0073920  0.9924632  0.9949495

 Al 
  0.9910264  0.2447193  0.2480855

 Al 
  0.2532313  0.0099908  0.2452898

 Al 
  0.2401342  0.2494208  0.0024306

 Al 
  0.4831382  0.0059019  0.9901057

 Al 
  0.5070331  0.2658618  0.2405215

 Al 
  0.7312311  0.9923457  0.2332125

 Al 
  0.7422603  0.2465373  0.0082979

 Al 
  0.9922665  0.4917801  0.0162975

 Al 
  0.9895587  0.7528365  0.2516286

 Al 
  0.2295889  0.4953888  0.2599587

 Al 
  0.2421019  0.7586914  0.0030048

 Al 
  0.0234320  0.9842854  0.5099748

 Al 
  0.9874449  0.2484085  0.7600069

 Al 
  0.2491993  0.0130192  0.7394250

 Al 
  0.2327768  0.2294812  0.5032944

 Al 
  0.0012450  0.4994716  0.5131541

 Al 
  0.0037944  0.7502884  0.7457044

 Al 
  0.2579860  0.4936785  0.7393273

 Al 
  0.2559651  0.7390166  0.4942453

 Al 
  0.4768959  0.5014108  0.9907467

 Al 
  0.5177875  0.7252661  0.2519665

 Al 
  0.7556693  0.4966771  0.2564304

 Al 
  0.7378199  0.7463108  0.9921180

 Al 
  0.4936501  0.0107099  0.4964036

 Al 
  0.5113472  0.2661032  0.7546557

 Al 
  0.7612210  0.0050319  0.7467514

 Al 
  0.7587520  0.2438506  0.4984035

 Al 
  0.5234382  0.5002537  0.4977377

 Al 
  0.5078622  0.7711970  0.7403879

 Al 
  0.7613262  0.4944112  0.7665858

 Al 
  0.7734246  0.7751893  0.5088993

