32 
charge = 0 
 Al 
  0.0048017  0.9880266  0.9935721

 Al 
  0.9905351  0.2440931  0.2490421

 Al 
  0.2453740  0.0144114  0.2510866

 Al 
  0.2320182  0.2525865  0.0077793

 Al 
  0.4870341  0.0016509  0.9863707

 Al 
  0.5194879  0.2710806  0.2513576

 Al 
  0.7453134  0.9938369  0.2331407

 Al 
  0.7386243  0.2431922  0.0072249

 Al 
  0.9921712  0.4968368  0.0191760

 Al 
  0.9958826  0.7442701  0.2519838

 Al 
  0.2379164  0.5006559  0.2747810

 Al 
  0.2372073  0.7511089  0.0042498

 Al 
  0.0198443  0.9845874  0.5096431

 Al 
  0.9958938  0.2522845  0.7704619

 Al 
  0.2577385  0.0138756  0.7336283

 Al 
  0.2388570  0.2388075  0.4861443

 Al 
  0.9984209  0.4993899  0.5239580

 Al 
  0.0057485  0.7451240  0.7500619

 Al 
  0.2572323  0.4897889  0.7427677

 Al 
  0.2544527  0.7348745  0.4924991

 Al 
  0.4875390  0.4892778  0.9899745

 Al 
  0.5171477  0.7255903  0.2388421

 Al 
  0.7504529  0.4982179  0.2534169

 Al 
  0.7409485  0.7419497  0.9886367

 Al 
  0.4897047  0.0135204  0.4937181

 Al 
  0.5104030  0.2640117  0.7460237

 Al 
  0.7564700  0.0126169  0.7425660

 Al 
  0.7561655  0.2467774  0.4985050

 Al 
  0.5074563  0.5054638  0.4972118

 Al 
  0.5014331  0.7641255  0.7406106

 Al 
  0.7602879  0.5059242  0.7759715

 Al 
  0.7674397  0.7720447  0.4955943

