32 
charge = 0 
 Al 
  0.0061395  0.9889770  0.9937862

 Al 
  0.9906218  0.2446797  0.2484568

 Al 
  0.2476833  0.0138001  0.2497265

 Al 
  0.2341419  0.2516385  0.0063190

 Al 
  0.4855774  0.0029008  0.9871343

 Al 
  0.5168135  0.2702836  0.2477093

 Al 
  0.7408160  0.9932107  0.2327137

 Al 
  0.7393681  0.2441203  0.0080206

 Al 
  0.9916836  0.4950398  0.0188295

 Al 
  0.9936624  0.7467143  0.2519776

 Al 
  0.2348683  0.4994208  0.2709705

 Al 
  0.2381800  0.7540023  0.0039367

 Al 
  0.0217390  0.9837978  0.5104512

 Al 
  0.9928481  0.2509344  0.7676390

 Al 
  0.2550864  0.0140154  0.7342347

 Al 
  0.2366702  0.2344240  0.4911886

 Al 
  0.9995718  0.4996980  0.5211128

 Al 
  0.0049082  0.7468455  0.7480942

 Al 
  0.2578734  0.4908049  0.7415474

 Al 
  0.2546817  0.7355094  0.4928568

 Al 
  0.4840330  0.4924868  0.9897975

 Al 
  0.5182998  0.7244468  0.2428159

 Al 
  0.7514690  0.4976561  0.2542226

 Al 
  0.7396503  0.7427293  0.9893594

 Al 
  0.4901502  0.0129189  0.4949223

 Al 
  0.5108695  0.2652530  0.7491102

 Al 
  0.7582298  0.0104995  0.7435226

 Al 
  0.7569811  0.2458604  0.4983751

 Al 
  0.5124598  0.5039949  0.4966883

 Al 
  0.5035110  0.7668643  0.7405970

 Al 
  0.7610848  0.5025865  0.7741114

 Al 
  0.7703282  0.7738874  0.4997723

