32 
charge = 0 
 Al 
  0.0053883  0.9883756  0.9936464

 Al 
  0.9905710  0.2443530  0.2487773

 Al 
  0.2462985  0.0142394  0.2505854

 Al 
  0.2328338  0.2522066  0.0071952

 Al 
  0.4864239  0.0021521  0.9866405

 Al 
  0.5185115  0.2708418  0.2498490

 Al 
  0.7434743  0.9935696  0.2329254

 Al 
  0.7388892  0.2435585  0.0075962

 Al 
  0.9919224  0.4960918  0.0190746

 Al 
  0.9949569  0.7452478  0.2519813

 Al 
  0.2366405  0.5001980  0.2733182

 Al 
  0.2375464  0.7523378  0.0041285

 Al 
  0.0206797  0.9842013  0.5100230

 Al 
  0.9946253  0.2517276  0.7693542

 Al 
  0.2566717  0.0139560  0.7337805

 Al 
  0.2379437  0.2369041  0.4881528

 Al 
  0.9989208  0.4995409  0.5228516

 Al 
  0.0053908  0.7458257  0.7492203

 Al 
  0.2575281  0.4901849  0.7422467

 Al 
  0.2545332  0.7350552  0.4926167

 Al 
  0.4861009  0.4905401  0.9898656

 Al 
  0.5177058  0.7250272  0.2404522

 Al 
  0.7508044  0.4979741  0.2537251

 Al 
  0.7403928  0.7421996  0.9888892

 Al 
  0.4898111  0.0133063  0.4942503

 Al 
  0.5106059  0.2645661  0.7473145

 Al 
  0.7572076  0.0117828  0.7429323

 Al 
  0.7564935  0.2463950  0.4984394

 Al 
  0.5094859  0.5048748  0.4969420

 Al 
  0.5022821  0.7652901  0.7406094

 Al 
  0.7606554  0.5046074  0.7753230

 Al 
  0.7687045  0.7728726  0.4972910

