32 
charge = 0 
 Al 
  0.0051037  0.9881949  0.9936080

 Al 
  0.9905537  0.2442255  0.2489048

 Al 
  0.2458344  0.0143384  0.2508440

 Al 
  0.2324179  0.2523972  0.0074873

 Al 
  0.4867247  0.0019009  0.9864994

 Al 
  0.5190164  0.2709754  0.2505965

 Al 
  0.7443889  0.9937008  0.2330256

 Al 
  0.7387506  0.2433741  0.0074192

 Al 
  0.9920388  0.4964606  0.0191315

 Al 
  0.9954148  0.7447577  0.2519826

 Al 
  0.2372704  0.5004331  0.2740619

 Al 
  0.2373682  0.7517338  0.0041891

 Al 
  0.0202737  0.9843832  0.5098423

 Al 
  0.9952527  0.2520036  0.7699124

 Al 
  0.2572051  0.0139189  0.7336902

 Al 
  0.2383954  0.2378323  0.4871442

 Al 
  0.9986770  0.4994691  0.5234122

 Al 
  0.0055666  0.7454755  0.7496337

 Al 
  0.2573858  0.4899844  0.7425016

 Al 
  0.2544911  0.7349512  0.4925536

 Al 
  0.4868150  0.4899052  0.9899139

 Al 
  0.5174422  0.7252921  0.2396490

 Al 
  0.7506188  0.4980929  0.2535679

 Al 
  0.7406651  0.7420635  0.9887567

 Al 
  0.4897456  0.0134177  0.4939929

 Al 
  0.5105069  0.2642976  0.7466771

 Al 
  0.7568437  0.0122024  0.7427466

 Al 
  0.7563289  0.2465843  0.4984704

 Al 
  0.5084736  0.5051693  0.4970670

 Al 
  0.5018601  0.7647183  0.7406106

 Al 
  0.7604797  0.5052708  0.7756646

 Al 
  0.7680895  0.7724729  0.4964457

