32 
charge = 0 
 Al 
  0.0020049  0.9871157  0.9933951

 Al 
  0.9903260  0.2429496  0.2504641

 Al 
  0.2419360  0.0140104  0.2523266

 Al 
  0.2295864  0.2540060  0.0100799

 Al 
  0.4896404  0.9997624  0.9858497

 Al 
  0.5219061  0.2708368  0.2575751

 Al 
  0.7526929  0.9950498  0.2345688

 Al 
  0.7380687  0.2419063  0.0051173

 Al 
  0.9938134  0.4998663  0.0191055

 Al 
  0.9998230  0.7406094  0.2521138

 Al 
  0.2433382  0.5018910  0.2791990

 Al 
  0.2366863  0.7455671  0.0046409

 Al 
  0.0157232  0.9869672  0.5075813

 Al 
  0.0011497  0.2545245  0.7742537

 Al 
  0.2616603  0.0133483  0.7341184

 Al 
  0.2427466  0.2476697  0.4789515

 Al 
  0.9959952  0.4984790  0.5275927

 Al 
  0.0073313  0.7424311  0.7537597

 Al 
  0.2556260  0.4884610  0.7452737

 Al 
  0.2541582  0.7353732  0.4924979

 Al 
  0.4932936  0.4847743  0.9908866

 Al 
  0.5137666  0.7291174  0.2325553

 Al 
  0.7498787  0.4994567  0.2525246

 Al 
  0.7434879  0.7419608  0.9882852

 Al 
  0.4902839  0.0139288  0.4909757

 Al 
  0.5094401  0.2612247  0.7405215

 Al 
  0.7533080  0.0154930  0.7413309

 Al 
  0.7550109  0.2484803  0.4989419

 Al 
  0.4996659  0.5077496  0.4989592

 Al 
  0.4980904  0.7588461  0.7405958

 Al 
  0.7582793  0.5104141  0.7769640

 Al 
  0.7612804  0.7677268  0.4889956

