32 
charge = 0 
 Al 
  0.0044862  0.9878682  0.9935412

 Al 
  0.9905153  0.2439545  0.2491894

 Al 
  0.2449149  0.0144584  0.2513118

 Al 
  0.2316333  0.2527759  0.0080714

 Al 
  0.4873484  0.0014009  0.9862556

 Al 
  0.5199248  0.2711574  0.2521298

 Al 
  0.7462452  0.9939768  0.2332694

 Al 
  0.7385092  0.2430127  0.0070133

 Al 
  0.9923222  0.4972167  0.0192082

 Al 
  0.9963603  0.7437850  0.2519875

 Al 
  0.2385761  0.5008638  0.2754715

 Al 
  0.2370662  0.7504628  0.0043067

 Al 
  0.0193914  0.9848139  0.5094278

 Al 
  0.9965447  0.2525692  0.7709990

 Al 
  0.2582669  0.0138248  0.7335961

 Al 
  0.2393273  0.2398235  0.4851554

 Al 
  0.9981523  0.4993008  0.5244901

 Al 
  0.0059353  0.7447713  0.7505037

 Al 
  0.2570652  0.4895970  0.7430437

 Al 
  0.2544156  0.7348250  0.4924546

 Al 
  0.4882679  0.4886615  0.9900475

 Al 
  0.5168222  0.7259245  0.2380340

 Al 
  0.7503069  0.4983503  0.2532734

 Al 
  0.7412418  0.7418593  0.9885327

 Al 
  0.4896899  0.0136132  0.4934273

 Al 
  0.5102953  0.2637085  0.7453554

 Al 
  0.7560876  0.0130216  0.7423902

 Al 
  0.7560047  0.2469766  0.4985434

 Al 
  0.5064390  0.5057571  0.4973764

 Al 
  0.5010049  0.7635129  0.7406081

 Al 
  0.7600812  0.5065640  0.7762400

 Al 
  0.7667566  0.7715880  0.4947428

