32 
charge = 0 
 Al 
  0.0012623  0.9870167  0.9933679

 Al 
  0.9902505  0.2426934  0.2508873

 Al 
  0.2412046  0.0136355  0.2524269

 Al 
  0.2292597  0.2543104  0.0106368

 Al 
  0.4902901  0.9993503  0.9858683

 Al 
  0.5221190  0.2704755  0.2590453

 Al 
  0.7544181  0.9953728  0.2350527

 Al 
  0.7380637  0.2416514  0.0044738

 Al 
  0.9943493  0.5005656  0.0189817

 Al 
  0.0007982  0.7398149  0.2522041

 Al 
  0.2446612  0.5020544  0.2798178

 Al 
  0.2367853  0.7441228  0.0047077

 Al 
  0.0145698  0.9877296  0.5069910

 Al 
  0.0023860  0.2550307  0.7749691

 Al 
  0.2624647  0.0131887  0.7344711

 Al 
  0.2437132  0.2499728  0.4775184

 Al 
  0.9953233  0.4982006  0.5282300

 Al 
  0.0077298  0.7418482  0.7546706

 Al 
  0.2551557  0.4882221  0.7459903

 Al 
  0.2540617  0.7358287  0.4926328

 Al 
  0.4946253  0.4838387  0.9912183

 Al 
  0.5126949  0.7302485  0.2311235

 Al 
  0.7499381  0.4998255  0.2524046

 Al 
  0.7441538  0.7422331  0.9883818

 Al 
  0.4906614  0.0139028  0.4901676

 Al 
  0.5091765  0.2604500  0.7391726

 Al 
  0.7525296  0.0160388  0.7410834

 Al 
  0.7548005  0.2489332  0.4990953

 Al 
  0.4979667  0.5082805  0.4995149

 Al 
  0.4973318  0.7574588  0.7406069

 Al 
  0.7576791  0.5112395  0.7767796

 Al 
  0.7595812  0.7664658  0.4875093

