32 
charge = 0 
 Al 
  0.9978145  0.9872048  0.9932305

 Al 
  0.9897357  0.2420041  0.2532139

 Al 
  0.2386033  0.0103522  0.2518167

 Al 
  0.2296223  0.2554119  0.0133867

 Al 
  0.4933023  0.9977625  0.9867791

 Al 
  0.5212168  0.2672170  0.2650339

 Al 
  0.7616244  0.9969766  0.2380501

 Al 
  0.7387765  0.2408173  0.0009900

 Al 
  0.9973318  0.5032659  0.0178729

 Al 
  0.0052151  0.7368187  0.2532065

 Al 
  0.2504109  0.5024665  0.2794243

 Al 
  0.2386615  0.7372543  0.0048228

 Al 
  0.0085070  0.9921489  0.5040852

 Al 
  0.0073598  0.2568957  0.7768712

 Al 
  0.2650067  0.0123298  0.7371207

 Al 
  0.2481090  0.2602569  0.4732724

 Al 
  0.9919373  0.4967836  0.5295493

 Al 
  0.0095255  0.7397802  0.7585206

 Al 
  0.2527338  0.4877110  0.7499493

 Al 
  0.2531793  0.7399287  0.4940733

 Al 
  0.5000854  0.4804577  0.9933481

 Al 
  0.5065752  0.7367408  0.2252562

 Al 
  0.7510829  0.5018811  0.2523959

 Al 
  0.7473380  0.7450052  0.9898767

 Al 
  0.4935733  0.0129499  0.4856888

 Al 
  0.5077768  0.2565937  0.7332545

 Al 
  0.7490718  0.0174868  0.7401391

 Al 
  0.7543958  0.2512697  0.5000953

 Al 
  0.4918507  0.5105836  0.5026434

 Al 
  0.4942787  0.7507005  0.7409930

 Al 
  0.7543674  0.5133038  0.7734753

 Al 
  0.7509294  0.7596406  0.4815665

