32 
charge = 0 
 Al 
  0.9987798  0.9870378  0.9932800

 Al 
  0.9899064  0.2420846  0.2524900

 Al 
  0.2391961  0.0115625  0.2521707

 Al 
  0.2291619  0.2551569  0.0125538

 Al 
  0.4924397  0.9981573  0.9863695

 Al 
  0.5217848  0.2684174  0.2635068

 Al 
  0.7597223  0.9965002  0.2370576

 Al 
  0.7384399  0.2409943  0.0020593

 Al 
  0.9964135  0.5026100  0.0182825

 Al 
  0.0039775  0.7375464  0.2527957

 Al 
  0.2488503  0.5023637  0.2801619

 Al 
  0.2378620  0.7392295  0.0048290

 Al 
  0.0103671  0.9907356  0.5049267

 Al 
  0.0061012  0.2564663  0.7765915

 Al 
  0.2645067  0.0125996  0.7362024

 Al 
  0.2468789  0.2574675  0.4740248

 Al 
  0.9929385  0.4971957  0.5294787

 Al 
  0.0090268  0.7402455  0.7575108

 Al 
  0.2534553  0.4877444  0.7486993

 Al 
  0.2535308  0.7383979  0.4935164

 Al 
  0.4986585  0.4812559  0.9926303

 Al 
  0.5085157  0.7346765  0.2267883

 Al 
  0.7506262  0.5012388  0.2523093

 Al 
  0.7464173  0.7439545  0.9892654

 Al 
  0.4925474  0.0133830  0.4870959

 Al 
  0.5082187  0.2577273  0.7348671

 Al 
  0.7500235  0.0172801  0.7403792

 Al 
  0.7544008  0.2505520  0.4997537

 Al 
  0.4932540  0.5099512  0.5016620

 Al 
  0.4950646  0.7526781  0.7408012

 Al 
  0.7554057  0.5130303  0.7748515

 Al 
  0.7535271  0.7617568  0.4830887

