32 
charge = 0 
 Al 
  0.9991164  0.9870031  0.9932949

 Al 
  0.9899609  0.2421378  0.2522524

 Al 
  0.2394287  0.0119252  0.2522598

 Al 
  0.2290753  0.2550579  0.0122803

 Al 
  0.4921452  0.9983033  0.9862581

 Al 
  0.5219234  0.2687788  0.2629449

 Al 
  0.7590392  0.9963405  0.2367432

 Al 
  0.7383508  0.2410660  0.0024132

 Al 
  0.9961079  0.5023613  0.0184050

 Al 
  0.0035493  0.7378211  0.2526818

 Al 
  0.2482996  0.5023316  0.2802893

 Al 
  0.2376405  0.7399064  0.0048228

 Al 
  0.0109797  0.9902802  0.5052151

 Al 
  0.0056359  0.2562967  0.7764442

 Al 
  0.2642901  0.0126875  0.7359165

 Al 
  0.2464519  0.2564737  0.4743750

 Al 
  0.9932763  0.4973368  0.5293946

 Al 
  0.0088535  0.7404299  0.7571444

 Al 
  0.2536978  0.4877778  0.7482946

 Al 
  0.2536298  0.7379437  0.4933531

 Al 
  0.4981437  0.4815616  0.9924063

 Al 
  0.5091456  0.7340082  0.2273415

 Al 
  0.7504913  0.5010284  0.2522957

 Al 
  0.7461029  0.7436414  0.9890909

 Al 
  0.4922318  0.0134981  0.4875538

 Al 
  0.5083610  0.2581110  0.7354364

 Al 
  0.7503564  0.0171675  0.7404658

 Al 
  0.7544243  0.2503168  0.4996485

 Al 
  0.4938035  0.5097297  0.5013428

 Al 
  0.4953505  0.7533476  0.7407542

 Al 
  0.7557435  0.5128768  0.7752413

 Al 
  0.7543933  0.7624499  0.4836444

