32 
charge = 0 
 Al 
  0.9972130  0.9873645  0.9931885

 Al 
  0.9896218  0.2420239  0.2537065

 Al 
  0.2382927  0.0094463  0.2515098

 Al 
  0.2300963  0.2555443  0.0139572

 Al 
  0.4938642  0.9975360  0.9871120

 Al 
  0.5207217  0.2663259  0.2659151

 Al 
  0.7627729  0.9972910  0.2387580

 Al 
  0.7390587  0.2407344  0.0002735

 Al 
  0.9979407  0.5036248  0.0175660

 Al 
  0.0060009  0.7364091  0.2535407

 Al 
  0.2513774  0.5025556  0.2786372

 Al 
  0.2393050  0.7359809  0.0047968

 Al 
  0.0072422  0.9931291  0.5035481

 Al 
  0.0080862  0.2571172  0.7769256

 Al 
  0.2652195  0.0121380  0.7377803

 Al 
  0.2488837  0.2619511  0.4730162

 Al 
  0.9912851  0.4965237  0.5294428

 Al 
  0.0098386  0.7395438  0.7591196

 Al 
  0.2522610  0.4877444  0.7508156

 Al 
  0.2528922  0.7410834  0.4944978

 Al 
  0.5009480  0.4800158  0.9938666

 Al 
  0.5052398  0.7381689  0.2243354

 Al 
  0.7514220  0.5023142  0.2524863

 Al 
  0.7479370  0.7457948  0.9903520

 Al 
  0.4943184  0.0125848  0.4847235

 Al 
  0.5074650  0.2558537  0.7322558

 Al 
  0.7484778  0.0175140  0.7399918

 Al 
  0.7544453  0.2517623  0.5003453

 Al 
  0.4911168  0.5109821  0.5033105

 Al 
  0.4938097  0.7494060  0.7411712

 Al 
  0.7536533  0.5133372  0.7723912

 Al 
  0.7491968  0.7581989  0.4806656

