32 
charge = 0 
 Al 
  0.9963752  0.9876726  0.9931105

 Al 
  0.9894597  0.2421724  0.2544552

 Al 
  0.2379474  0.0079439  0.2509566

 Al 
  0.2310591  0.2556878  0.0148458

 Al 
  0.4946921  0.9972489  0.9877036

 Al 
  0.5198270  0.2648631  0.2670251

 Al 
  0.7643211  0.9977563  0.2398904

 Al 
  0.7395698  0.2406589  0.9991956

 Al 
  0.9988355  0.5040444  0.0170573

 Al 
  0.0071246  0.7359029  0.2541359

 Al 
  0.2527276  0.5027424  0.2770160

 Al 
  0.2404374  0.7341344  0.0047213

 Al 
  0.0053005  0.9946574  0.5027845

 Al 
  0.0090132  0.2573437  0.7768130

 Al 
  0.2653619  0.0118286  0.7388347

 Al 
  0.2499777  0.2642344  0.4729964

 Al 
  0.9903371  0.4961636  0.5290543

 Al 
  0.0102742  0.7393013  0.7599067

 Al 
  0.2515680  0.4878793  0.7521645

 Al 
  0.2523786  0.7430115  0.4952143

 Al 
  0.5021261  0.4794800  0.9947082

 Al 
  0.5031756  0.7403866  0.2230966

 Al 
  0.7519652  0.5029640  0.2526558

 Al 
  0.7488169  0.7470954  0.9911589

 Al 
  0.4955200  0.0119128  0.4832335

 Al 
  0.5069576  0.2547659  0.7308710

 Al 
  0.7476424  0.0173890  0.7397852

 Al 
  0.7545951  0.2525321  0.5007524

 Al 
  0.4903037  0.5115489  0.5043253

 Al 
  0.4931810  0.7475001  0.7415239

 Al 
  0.7525432  0.5131850  0.7705324

 Al 
  0.7465856  0.7559898  0.4794738

