32 
charge = 0 
 Al 
  0.9953975  0.9882147  0.9929793

 Al 
  0.9892889  0.2426217  0.2554638

 Al 
  0.2376999  0.0056829  0.2500569

 Al 
  0.2328140  0.2557720  0.0161081

 Al 
  0.4957836  0.9969692  0.9886577

 Al 
  0.5183914  0.2627023  0.2680907

 Al 
  0.7660673  0.9983677  0.2415400

 Al 
  0.7404213  0.2406576  0.9977650

 Al 
  0.9999641  0.5043760  0.0162888

 Al 
  0.0085243  0.7354265  0.2551161

 Al 
  0.2543711  0.5031273  0.2740397

 Al 
  0.2422553  0.7317942  0.0045431

 Al 
  0.0026162  0.9968059  0.5018588

 Al 
  0.0099488  0.2574427  0.7763093

 Al 
  0.2652257  0.0113559  0.7403520

 Al 
  0.2512982  0.2667801  0.4736436

 Al 
  0.9891515  0.4957613  0.5281001

 Al 
  0.0107866  0.7391849  0.7607420

 Al 
  0.2506807  0.4882085  0.7540592

 Al 
  0.2515247  0.7459334  0.4963133

 Al 
  0.5035122  0.4789837  0.9959606

 Al 
  0.5003230  0.7434941  0.2217130

 Al 
  0.7527189  0.5038117  0.2529182

 Al 
  0.7499616  0.7490100  0.9923989

 Al 
  0.4972699  0.0107606  0.4811779

 Al 
  0.5061928  0.2533563  0.7292288

 Al 
  0.7466276  0.0168915  0.7395253

 Al 
  0.7549243  0.2536298  0.5013613

 Al 
  0.4897307  0.5122506  0.5056854

 Al 
  0.4924694  0.7450275  0.7421885

 Al 
  0.7509851  0.5126368  0.7676452

 Al 
  0.7430734  0.7529590  0.4781694

