32 
charge = 0 
 Al 
  0.9958653  0.9879251  0.9930486

 Al 
  0.9893656  0.2423593  0.2549589

 Al 
  0.2377939  0.0068487  0.2505284

 Al 
  0.2318697  0.2557460  0.0154646

 Al 
  0.4952391  0.9970942  0.9881578

 Al 
  0.5191414  0.2638112  0.2676192

 Al 
  0.7652406  0.9980645  0.2406960

 Al 
  0.7399708  0.2406440  0.9984778

 Al 
  0.9994122  0.5042436  0.0166861

 Al 
  0.0078387  0.7356368  0.2545988

 Al 
  0.2535704  0.5029132  0.2756423

 Al 
  0.2413024  0.7329464  0.0046446

 Al 
  0.0039713  0.9957168  0.5023068

 Al 
  0.0095230  0.2574241  0.7766113

 Al 
  0.2653396  0.0116021  0.7395785

 Al 
  0.2506596  0.2655797  0.4732241

 Al 
  0.9897307  0.4959507  0.5286397

 Al 
  0.0105416  0.7392134  0.7603559

 Al 
  0.2511188  0.4880229  0.7530989

 Al 
  0.2519764  0.7444235  0.4957440

 Al 
  0.5028427  0.4792015  0.9953146

 Al 
  0.5017611  0.7419200  0.2223665

 Al 
  0.7523402  0.5033922  0.2527845

 Al 
  0.7493924  0.7480310  0.9917578

 Al 
  0.4963764  0.0113757  0.4822150

 Al 
  0.5065900  0.2540543  0.7300196

 Al 
  0.7471214  0.0171885  0.7396540

 Al 
  0.7547423  0.2530692  0.5010470

 Al 
  0.4899460  0.5119078  0.5050059

 Al 
  0.4928073  0.7462539  0.7418271

 Al 
  0.7517759  0.5129585  0.7691439

 Al 
  0.7448344  0.7544862  0.4787808

