32 
charge = 0 
 Al 
  0.9939384  0.9899720  0.9926167

 Al 
  0.9893223  0.2448072  0.2576147

 Al 
  0.2379400  0.9997884  0.2475001

 Al 
  0.2385860  0.2554502  0.0192602

 Al 
  0.4982167  0.9968578  0.9914163

 Al 
  0.5144622  0.2572719  0.2685560

 Al 
  0.7685795  0.9996597  0.2457267

 Al 
  0.7430498  0.2411081  0.9947107

 Al 
  0.0019355  0.5041260  0.0142431

 Al 
  0.0111244  0.7351777  0.2580169

 Al 
  0.2575454  0.5045889  0.2644015

 Al 
  0.2474135  0.7272474  0.0037127

 Al 
  0.9963282  0.0019764  0.5003403

 Al 
  0.0108262  0.2567546  0.7737847

 Al 
  0.2636256  0.0099562  0.7440659

 Al 
  0.2535172  0.2703406  0.4777647

 Al 
  0.9870873  0.4953480  0.5241213

 Al 
  0.0115155  0.7398161  0.7616541

 Al 
  0.2489444  0.4895005  0.7585577

 Al 
  0.2489753  0.7536570  0.4993094

 Al 
  0.5060467  0.4787300  0.9992884

 Al 
  0.4938085  0.7509183  0.2198715

 Al 
  0.7542721  0.5054168  0.2533934

 Al 
  0.7523947  0.7536298  0.9956871

 Al 
  0.5016051  0.0069823  0.4765098

 Al 
  0.5040097  0.2504270  0.7264789

 Al 
  0.7447725  0.0142877  0.7389486

 Al 
  0.7560319  0.2564143  0.5029689

 Al 
  0.4903012  0.5135142  0.5084785

 Al 
  0.4913593  0.7399757  0.7446574

 Al 
  0.7472266  0.5102260  0.7598918

 Al 
  0.7352371  0.7460732  0.4764541

