32 
charge = 0 
 Al 
  0.9946067  0.9889065  0.9928221

 Al 
  0.9892122  0.2433865  0.2564601

 Al 
  0.2376801  0.0031657  0.2489951

 Al 
  0.2350936  0.2557200  0.0174682

 Al 
  0.4968714  0.9968207  0.9897938

 Al 
  0.5167331  0.2603473  0.2686439

 Al 
  0.7674385  0.9989629  0.2433407

 Al 
  0.7414732  0.2407764  0.9963616

 Al 
  0.0009653  0.5044367  0.0154250

 Al 
  0.0097928  0.7351740  0.2563017

 Al 
  0.2558623  0.5036855  0.2701896

 Al 
  0.2443976  0.7296235  0.0042560

 Al 
  0.9998342  0.9990681  0.5010693

 Al 
  0.0105465  0.2572954  0.7754121

 Al 
  0.2647258  0.0107953  0.7419719

 Al 
  0.2524306  0.2687392  0.4750470

 Al 
  0.9881033  0.4954779  0.5266361

 Al 
  0.0111987  0.7393149  0.7613200

 Al 
  0.2498515  0.4887011  0.7560430

 Al 
  0.2504839  0.7492129  0.4975670

 Al 
  0.5047287  0.4787275  0.9973628

 Al 
  0.4974011  0.7467526  0.2206562

 Al 
  0.7534577  0.5046013  0.2531743

 Al 
  0.7510742  0.7510569  0.9937961

 Al 
  0.4991572  0.0092854  0.4790765

 Al 
  0.5053030  0.2520024  0.7278315

 Al 
  0.7457267  0.0159930  0.7392691

 Al 
  0.7553723  0.2548191  0.5020420

 Al 
  0.4896985  0.5128806  0.5070071

 Al 
  0.4918927  0.7426637  0.7431105

 Al 
  0.7493416  0.5117408  0.7643607

 Al 
  0.7395451  0.7498676  0.4771917

