32 
charge = 0 
 Al 
  0.9940399  0.9897418  0.9926563

 Al 
  0.9892790  0.2444829  0.2573969

 Al 
  0.2378645  0.0004740  0.2478095

 Al 
  0.2378385  0.2555232  0.0188988

 Al 
  0.4979506  0.9968281  0.9910784

 Al 
  0.5149275  0.2578882  0.2686451

 Al 
  0.7684050  0.9995260  0.2452440

 Al 
  0.7427145  0.2410264  0.9950275

 Al 
  0.0017722  0.5042213  0.0144857

 Al 
  0.0108856  0.7351493  0.2576593

 Al 
  0.2572237  0.5043958  0.2656242

 Al 
  0.2467910  0.7276855  0.0038389

 Al 
  0.9970224  0.0013935  0.5004591

 Al 
  0.0108113  0.2568932  0.7741510

 Al 
  0.2638842  0.0101356  0.7436464

 Al 
  0.2533328  0.2700943  0.4771447

 Al 
  0.9872593  0.4953517  0.5246795

 Al 
  0.0114734  0.7396862  0.7616232

 Al 
  0.2491114  0.4893285  0.7580578

 Al 
  0.2492896  0.7527499  0.4989493

 Al 
  0.5058005  0.4787015  0.9988924

 Al 
  0.4945089  0.7500866  0.2199755

 Al 
  0.7541236  0.5052745  0.2533637

 Al 
  0.7521397  0.7531248  0.9953022

 Al 
  0.5011150  0.0074823  0.4770086

 Al 
  0.5042844  0.2507289  0.7267103

 Al 
  0.7449470  0.0146800  0.7390117

 Al 
  0.7558957  0.2560876  0.5027796

 Al 
  0.4901329  0.5134053  0.5082088

 Al 
  0.4914497  0.7404819  0.7443134

 Al 
  0.7476486  0.5105576  0.7608027

 Al 
  0.7360787  0.7468133  0.4765569

