32 
charge = 0 
 Al 
  0.9947849  0.9887196  0.9928630

 Al 
  0.9892196  0.2431649  0.2562150

 Al 
  0.2376640  0.0038154  0.2492748

 Al 
  0.2344760  0.2557460  0.0171192

 Al 
  0.4966004  0.9968442  0.9894943

 Al 
  0.5171650  0.2609500  0.2685560

 Al 
  0.7671328  0.9988169  0.2428791

 Al 
  0.7411923  0.2407356  0.9967068

 Al 
  0.0007302  0.5044478  0.0156490

 Al 
  0.0094896  0.7352161  0.2559873

 Al 
  0.2555022  0.5035295  0.2712279

 Al 
  0.2438345  0.7301483  0.0043389

 Al 
  0.0005359  0.9984939  0.5012512

 Al 
  0.0104289  0.2573561  0.7756720

 Al 
  0.2648842  0.0109438  0.7415598

 Al 
  0.2521670  0.2683048  0.4746275

 Al 
  0.9883496  0.4955361  0.5270494

 Al 
  0.0111071  0.7392592  0.7611999

 Al 
  0.2500520  0.4885637  0.7555406

 Al 
  0.2507599  0.7483639  0.4972402

 Al 
  0.5044391  0.4787696  0.9969989

 Al 
  0.4981325  0.7459259  0.2208876

 Al 
  0.7532771  0.5044119  0.2531149

 Al 
  0.7507995  0.7505383  0.9934347

 Al 
  0.4986746  0.0096864  0.4796025

 Al 
  0.5055381  0.2523340  0.7281558

 Al 
  0.7459420  0.0162554  0.7393334

 Al 
  0.7552510  0.2545134  0.5018650

 Al 
  0.4896602  0.5127308  0.5066841

 Al 
  0.4920239  0.7432417  0.7428543

 Al 
  0.7497587  0.5119945  0.7652134

 Al 
  0.7404250  0.7506423  0.4774046

