32 
charge = 0 
 Al 
  0.9939520  0.9928877  0.9923568

 Al 
  0.9906081  0.2494245  0.2592211

 Al 
  0.2392914  0.9927231  0.2440931

 Al 
  0.2476363  0.2540679  0.0228999

 Al 
  0.5009232  0.9980645  0.9951723

 Al 
  0.5094414  0.2510977  0.2654126

 Al 
  0.7687763  0.0008267  0.2506039

 Al 
  0.7471128  0.2424830  0.9919311

 Al 
  0.0025246  0.5021558  0.0115947

 Al 
  0.0124969  0.7363237  0.2620081

 Al 
  0.2606715  0.5066383  0.2506188

 Al 
  0.2541409  0.7241102  0.0016658

 Al 
  0.9896453  0.0078796  0.5000606

 Al 
  0.0099178  0.2544268  0.7688840

 Al 
  0.2598807  0.0077657  0.7483639

 Al 
  0.2544230  0.2708381  0.4861641

 Al 
  0.9864400  0.4961537  0.5167504

 Al 
  0.0110947  0.7420091  0.7609401

 Al 
  0.2477390  0.4914398  0.7634634

 Al 
  0.2456388  0.7632679  0.5033340

 Al 
  0.5081939  0.4798376  0.0035988

 Al 
  0.4874536  0.7592149  0.2207032

 Al 
  0.7552473  0.5060579  0.2530135

 Al 
  0.7547300  0.7581778  0.9998008

 Al 
  0.5064192  0.0006039  0.4721214

 Al 
  0.5006757  0.2476820  0.7253490

 Al 
  0.7433642  0.0086122  0.7383434

 Al 
  0.7572274  0.2599958  0.5049948

 Al 
  0.4929187  0.5138421  0.5101307

 Al 
  0.4909212  0.7359450  0.7493763

 Al 
  0.7430721  0.5061284  0.7502648

 Al 
  0.7274194  0.7393186  0.4767648

