32 
charge = 0 
 Al 
  0.9937033  0.9909608  0.9924756

 Al 
  0.9896181  0.2462848  0.2583845

 Al 
  0.2383347  0.9970695  0.2462378

 Al 
  0.2417529  0.2550666  0.0206896

 Al 
  0.4992562  0.9971041  0.9928011

 Al 
  0.5125934  0.2548599  0.2678494

 Al 
  0.7690077  0.0001547  0.2476288

 Al 
  0.7444693  0.2415153  0.9935362

 Al 
  0.0024132  0.5035877  0.0132630

 Al 
  0.0119041  0.7354289  0.2594896

 Al 
  0.2587644  0.5053871  0.2593411

 Al 
  0.2499381  0.7257252  0.0031112

 Al 
  0.9936513  0.0042609  0.5000149

 Al 
  0.0107024  0.2560591  0.7721573

 Al 
  0.2624276  0.0091939  0.7457131

 Al 
  0.2540827  0.2709618  0.4805492

 Al 
  0.9865786  0.4954594  0.5216549

 Al 
  0.0115576  0.7404658  0.7616108

 Al 
  0.2483664  0.4902208  0.7604945

 Al 
  0.2477043  0.7572880  0.5007797

 Al 
  0.5069415  0.4789726  0.0008935

 Al 
  0.4911613  0.7541644  0.2197441

 Al 
  0.7547758  0.5058586  0.2534181

 Al 
  0.7533550  0.7555331  0.9972303

 Al 
  0.5035134  0.0048203  0.4746448

 Al 
  0.5028538  0.2493008  0.7257599

 Al 
  0.7441538  0.0124907  0.7387011

 Al 
  0.7565566  0.2577335  0.5037325

 Al 
  0.4911502  0.5138359  0.5093857

 Al 
  0.4910871  0.7381602  0.7461933

 Al 
  0.7455782  0.5088015  0.7562447

 Al 
  0.7320430  0.7432738  0.4762673

