32 
charge = 0 
 Al 
  0.9937082  0.9917615  0.9924001

 Al 
  0.9899683  0.2475583  0.2588325

 Al 
  0.2387134  0.9951166  0.2452985

 Al 
  0.2442490  0.2546866  0.0216994

 Al 
  0.4999963  0.9974308  0.9938394

 Al 
  0.5112136  0.2531595  0.2669756

 Al 
  0.7690510  0.0004740  0.2489790

 Al 
  0.7455893  0.2418940  0.9927726

 Al 
  0.0025741  0.5030407  0.0125340

 Al 
  0.0122853  0.7357470  0.2605935

 Al 
  0.2596159  0.5059663  0.2555183

 Al 
  0.2518007  0.7248577  0.0025556

 Al 
  0.9918073  0.0058858  0.4999381

 Al 
  0.0104401  0.2554131  0.7708047

 Al 
  0.2613918  0.0085887  0.7468925

 Al 
  0.2543253  0.2710806  0.4828758

 Al 
  0.9863980  0.4956772  0.5196178

 Al 
  0.0114475  0.7410735  0.7614079

 Al 
  0.2480372  0.4907641  0.7618484

 Al 
  0.2467761  0.7599389  0.5018873

 Al 
  0.5075219  0.4792807  0.0020828

 Al 
  0.4894065  0.7564514  0.2199681

 Al 
  0.7550455  0.5060381  0.2533216

 Al 
  0.7539961  0.7567893  0.9983602

 Al 
  0.5048451  0.0030617  0.4734308

 Al 
  0.5019380  0.2485521  0.7254505

 Al 
  0.7437751  0.0109289  0.7385327

 Al 
  0.7568982  0.2587186  0.5042931

 Al 
  0.4918977  0.5139337  0.5098485

 Al 
  0.4909683  0.7370514  0.7474927

 Al 
  0.7444297  0.5076679  0.7535889

 Al 
  0.7298896  0.7414101  0.4763588

