32 
charge = 0 
 Al 
  0.9937454  0.9920388  0.9923828

 Al 
  0.9901106  0.2480075  0.2589538

 Al 
  0.2388508  0.9944928  0.2449903

 Al 
  0.2450931  0.2545431  0.0220175

 Al 
  0.5002351  0.9975670  0.9941797

 Al 
  0.5107618  0.2526199  0.2666254

 Al 
  0.7690164  0.0005705  0.2494072

 Al 
  0.7459680  0.2420326  0.9925424

 Al 
  0.0025890  0.5028340  0.0122952

 Al 
  0.0123707  0.7358769  0.2609561

 Al 
  0.2598881  0.5061470  0.2542646

 Al 
  0.2524033  0.7246263  0.0023489

 Al 
  0.9912331  0.0064044  0.4999455

 Al 
  0.0103250  0.2551780  0.7703356

 Al 
  0.2610254  0.0083845  0.7472724

 Al 
  0.2543735  0.2710596  0.4836827

 Al 
  0.9863781  0.4957762  0.5189137

 Al 
  0.0113806  0.7412950  0.7613113

 Al 
  0.2479469  0.4909398  0.7622741

 Al 
  0.2464791  0.7607953  0.5022524

 Al 
  0.5077001  0.4794045  0.0024714

 Al 
  0.4888743  0.7571754  0.2201042

 Al 
  0.7551136  0.5060665  0.2532635

 Al 
  0.7541929  0.7571692  0.9987278

 Al 
  0.5052621  0.0024566  0.4730682

 Al 
  0.5016262  0.2483219  0.7253911

 Al 
  0.7436637  0.0103720  0.7384808

 Al 
  0.7569959  0.2590429  0.5044738

 Al 
  0.4921551  0.5139362  0.5099562

 Al 
  0.4909448  0.7367346  0.7479494

 Al 
  0.7440696  0.5072843  0.7527313

 Al 
  0.7292263  0.7408433  0.4764306

