32 
charge = 0 
 Al 
  0.9936872  0.9912232  0.9924472

 Al 
  0.9897233  0.2466957  0.2585478

 Al 
  0.2384548  0.9964061  0.2459222

 Al 
  0.2425771  0.2549478  0.0210336

 Al 
  0.4995062  0.9971994  0.9931489

 Al 
  0.5121306  0.2542795  0.2675895

 Al 
  0.7690473  0.0002661  0.2480892

 Al 
  0.7448394  0.2416353  0.9932689

 Al 
  0.0024863  0.5034181  0.0130192

 Al 
  0.0120526  0.7355230  0.2598597

 Al 
  0.2590540  0.5055851  0.2580615

 Al 
  0.2505656  0.7254084  0.0029367

 Al 
  0.9930177  0.0048129  0.4999728

 Al 
  0.0106294  0.2558549  0.7717167

 Al 
  0.2620935  0.0089946  0.7461128

 Al 
  0.2541805  0.2710336  0.4813066

 Al 
  0.9864994  0.4955188  0.5209903

 Al 
  0.0115353  0.7406576  0.7615576

 Al 
  0.2482464  0.4904039  0.7609574

 Al 
  0.2473900  0.7581828  0.5011497

 Al 
  0.5071432  0.4790642  0.0012933

 Al 
  0.4905512  0.7549441  0.2197874

 Al 
  0.7548772  0.5059341  0.2533983

 Al 
  0.7535766  0.7559712  0.9976103

 Al 
  0.5039689  0.0042448  0.4742203

 Al 
  0.5025531  0.2490421  0.7256336

 Al 
  0.7440201  0.0119883  0.7386429

 Al 
  0.7566766  0.2580640  0.5039218

 Al 
  0.4913928  0.5138830  0.5095626

 Al 
  0.4910388  0.7377655  0.7466140

 Al 
  0.7451859  0.5084278  0.7553475

 Al 
  0.7312992  0.7426266  0.4762772

