32 
charge = 0 
 Al 
  0.9942998  0.9937676  0.9923803

 Al 
  0.9912183  0.2509294  0.2593424

 Al 
  0.2397567  0.9911242  0.2432404

 Al 
  0.2501757  0.2535209  0.0236610

 Al 
  0.5015754  0.9986919  0.9961079

 Al 
  0.5081766  0.2497154  0.2639807

 Al 
  0.7683493  0.0010371  0.2516583

 Al 
  0.7482600  0.2429805  0.9914348

 Al 
  0.0023019  0.5013972  0.0109203

 Al 
  0.0124288  0.7368571  0.2629981

 Al 
  0.2614054  0.5070306  0.2471982

 Al 
  0.2557460  0.7238726  0.0008811

 Al 
  0.9882729  0.0092273  0.5003119

 Al 
  0.0094352  0.2536186  0.7673766

 Al 
  0.2586803  0.0071482  0.7493936

 Al 
  0.2543401  0.2704000  0.4887048

 Al 
  0.9866913  0.4966512  0.5145327

 Al 
  0.0106752  0.7427875  0.7604586

 Al 
  0.2476152  0.4918853  0.7645117

 Al 
  0.2448827  0.7655735  0.5043872

 Al 
  0.5086493  0.4803525  0.0046594

 Al 
  0.4863101  0.7610391  0.2215819

 Al 
  0.7552757  0.5059069  0.2526372

 Al 
  0.7551903  0.7589884  0.0008292

 Al 
  0.5074279  0.9987129  0.4713975

 Al 
  0.4997104  0.2471140  0.7255062

 Al 
  0.7431080  0.0067237  0.7382333

 Al 
  0.7573486  0.2609091  0.5054750

 Al 
  0.4936278  0.5135934  0.5100762

 Al 
  0.4909646  0.7353955  0.7508811

 Al 
  0.7422034  0.5049800  0.7479778

 Al 
  0.7258948  0.7380674  0.4772660

