32 
charge = 0 
 Al 
  0.9951760  0.9953022  0.9925573

 Al 
  0.9924979  0.2536038  0.2592062

 Al 
  0.2405549  0.9888694  0.2419175

 Al 
  0.2543785  0.2524467  0.0246188

 Al 
  0.5025989  0.0000347  0.9975174

 Al 
  0.5061717  0.2476944  0.2611740

 Al 
  0.7672925  0.0012982  0.2530791

 Al 
  0.7501708  0.2439112  0.9908519

 Al 
  0.0016076  0.4999876  0.0098460

 Al 
  0.0118856  0.7379288  0.2644820

 Al 
  0.2625179  0.5074266  0.2420907

 Al 
  0.2580875  0.7241189  0.9993342

 Al 
  0.9864611  0.0111900  0.5010049

 Al 
  0.0085132  0.2521843  0.7647344

 Al 
  0.2565826  0.0061247  0.7510049

 Al 
  0.2539305  0.2692540  0.4930201

 Al 
  0.9875538  0.4977588  0.5107433

 Al 
  0.0096604  0.7442057  0.7594377

 Al 
  0.2475731  0.4924707  0.7659200

 Al 
  0.2438209  0.7690411  0.5060938

 Al 
  0.5093919  0.4813945  0.0062546

 Al 
  0.4850366  0.7635822  0.2236647

 Al 
  0.7550926  0.5053525  0.2517128

 Al 
  0.7558054  0.7599055  0.0024640

 Al 
  0.5087644  0.9955299  0.4707242

 Al 
  0.4980768  0.2462799  0.7262165

 Al 
  0.7427256  0.0032932  0.7381231

 Al 
  0.7572633  0.2623286  0.5061717

 Al 
  0.4945745  0.5128100  0.5094748

 Al 
  0.4911972  0.7349933  0.7535320

 Al 
  0.7410499  0.5030964  0.7445820

 Al 
  0.7239864  0.7365811  0.4784441

