32 
charge = 0 
 Al 
  0.9946067  0.9943703  0.9924274

 Al 
  0.9916885  0.2519739  0.2593386

 Al 
  0.2400747  0.9901601  0.2426971

 Al 
  0.2518613  0.2531174  0.0240929

 Al 
  0.5019925  0.9991844  0.9966945

 Al 
  0.5073610  0.2488689  0.2629177

 Al 
  0.7679756  0.0011534  0.2522784

 Al 
  0.7490236  0.2433382  0.9911663

 Al 
  0.0020704  0.5008539  0.0104846

 Al 
  0.0122754  0.7372581  0.2636181

 Al 
  0.2618682  0.5072298  0.2450634

 Al 
  0.2567348  0.7238713  0.0002995

 Al 
  0.9874783  0.0100527  0.5005507

 Al 
  0.0090812  0.2530568  0.7663420

 Al 
  0.2578548  0.0067373  0.7500495

 Al 
  0.2542164  0.2700015  0.4904200

 Al 
  0.9869685  0.4970509  0.5130303

 Al 
  0.0103176  0.7433370  0.7600812

 Al 
  0.2475756  0.4921440  0.7651255

 Al 
  0.2444285  0.7670152  0.5050765

 Al 
  0.5089439  0.4807423  0.0053240

 Al 
  0.4857062  0.7621318  0.2223219

 Al 
  0.7552374  0.5057299  0.2523142

 Al 
  0.7554577  0.7594191  0.0014913

 Al 
  0.5080145  0.9974420  0.4710460

 Al 
  0.4990607  0.2467675  0.7257215

 Al 
  0.7429521  0.0053958  0.7381776

 Al 
  0.7573598  0.2614932  0.5057695

 Al 
  0.4940486  0.5133372  0.5099129

 Al 
  0.4910326  0.7351592  0.7519207

 Al 
  0.7416972  0.5042213  0.7465571

 Al 
  0.7250359  0.7373843  0.4776867

