32 
charge = 0 
 Al 
  0.9958764  0.9962749  0.9927689

 Al 
  0.9934422  0.2553042  0.2589166

 Al 
  0.2410277  0.9877667  0.2411725

 Al 
  0.2568907  0.2516905  0.0249851

 Al 
  0.5031892  0.0010259  0.9982674

 Al 
  0.5050158  0.2466165  0.2592594

 Al 
  0.7664819  0.0014133  0.2537251

 Al 
  0.7513267  0.2445275  0.9906354

 Al 
  0.0010123  0.4990619  0.0092137

 Al 
  0.0113027  0.7386912  0.2652641

 Al 
  0.2631132  0.5074972  0.2393966

 Al 
  0.2592817  0.7246770  0.9982538

 Al 
  0.9856480  0.0122135  0.5015680

 Al 
  0.0079043  0.2512821  0.7630476

 Al 
  0.2552683  0.0055121  0.7519467

 Al 
  0.2535258  0.2683333  0.4956574

 Al 
  0.9883558  0.4986028  0.5084117

 Al 
  0.0088473  0.7451290  0.7586988

 Al 
  0.2476338  0.4927145  0.7665598

 Al 
  0.2432974  0.7709099  0.5071036

 Al 
  0.5098696  0.4821358  0.0070987

 Al 
  0.4846530  0.7648037  0.2252896

 Al 
  0.7548401  0.5048463  0.2509678

 Al 
  0.7561012  0.7602087  0.0034219

 Al 
  0.5093609  0.9936216  0.4706648

 Al 
  0.4970781  0.2458158  0.7269281

 Al 
  0.7424917  0.0010457  0.7381058

 Al 
  0.7570207  0.2631095  0.5065195

 Al 
  0.4949446  0.5121046  0.5088015

 Al 
  0.4914423  0.7350478  0.7552052

 Al 
  0.7405339  0.5019813  0.7427912

 Al 
  0.7232229  0.7360353  0.4793550

