32 
charge = 0 
 Al 
  0.9953950  0.9956215  0.9926192

 Al 
  0.9927974  0.2541632  0.2591270

 Al 
  0.2407133  0.9884808  0.2416650

 Al 
  0.2552163  0.2522041  0.0247599

 Al 
  0.5027969  0.0003490  0.9977749

 Al 
  0.5057831  0.2473256  0.2605539

 Al 
  0.7670363  0.0013390  0.2533117

 Al 
  0.7505544  0.2441117  0.9907690

 Al 
  0.0014232  0.4996857  0.0096357

 Al 
  0.0117135  0.7381726  0.2647517

 Al 
  0.2627221  0.5074637  0.2411613

 Al 
  0.2585033  0.7242686  0.9989864

 Al 
  0.9861678  0.0115440  0.5011819

 Al 
  0.0083152  0.2518873  0.7641812

 Al 
  0.2561494  0.0059205  0.7513192

 Al 
  0.2538080  0.2689669  0.4938951

 Al 
  0.9877964  0.4980249  0.5099710

 Al 
  0.0094080  0.7445077  0.7592013

 Al 
  0.2475868  0.4925610  0.7661514

 Al 
  0.2436365  0.7696810  0.5064316

 Al 
  0.5095466  0.4816321  0.0065455

 Al 
  0.4848770  0.7640154  0.2241758

 Al 
  0.7550208  0.5051978  0.2514814

 Al 
  0.7559094  0.7600267  0.0027845

 Al 
  0.5089810  0.9948926  0.4706747

 Al 
  0.4977452  0.2461227  0.7264281

 Al 
  0.7426489  0.0025605  0.7381132

 Al 
  0.7571989  0.2625959  0.5062942

 Al 
  0.4947168  0.5125947  0.5092768

 Al 
  0.4912690  0.7349884  0.7540840

 Al 
  0.7408643  0.5027226  0.7439656

 Al 
  0.7236993  0.7363720  0.4787300

