32 
charge = 0 
 Al 
  0.9941686  0.9934706  0.9923655

 Al 
  0.9910017  0.2504183  0.2593188

 Al 
  0.2395995  0.9916378  0.2435201

 Al 
  0.2493317  0.2537114  0.0234221

 Al 
  0.5013613  0.9984679  0.9958034

 Al 
  0.5085924  0.2501609  0.2644807

 Al 
  0.7685102  0.0009715  0.2513230

 Al 
  0.7478776  0.2428098  0.9915871

 Al 
  0.0023934  0.5016583  0.0111430

 Al 
  0.0124734  0.7366702  0.2626764

 Al 
  0.2611665  0.5069118  0.2483107

 Al 
  0.2552275  0.7239208  0.0011546

 Al 
  0.9887060  0.0087916  0.5002141

 Al 
  0.0096035  0.2538934  0.7678853

 Al 
  0.2590862  0.0073536  0.7490570

 Al 
  0.2543822  0.2705683  0.4878533

 Al 
  0.9865861  0.4964717  0.5152765

 Al 
  0.0108299  0.7425214  0.7606307

 Al 
  0.2476486  0.4917430  0.7641788

 Al 
  0.2451240  0.7648235  0.5040394

 Al 
  0.5085008  0.4801718  0.0043141

 Al 
  0.4866603  0.7604562  0.2212576

 Al 
  0.7552782  0.5059725  0.2527771

 Al 
  0.7550455  0.7587397  0.0004913

 Al 
  0.5071086  0.9993466  0.4716128

 Al 
  0.5000334  0.2472972  0.7254319

 Al 
  0.7431897  0.0073672  0.7382667

 Al 
  0.7573214  0.2606096  0.5053203

 Al 
  0.4934001  0.5136936  0.5101195

 Al 
  0.4909423  0.7355515  0.7503713

 Al 
  0.7424781  0.5053624  0.7487191

 Al 
  0.7263712  0.7384535  0.4770816

