32 
charge = 0 
 Al 
  0.9944458  0.9940671  0.9924001

 Al 
  0.9914472  0.2514479  0.2593485

 Al 
  0.2399151  0.9906329  0.2429669

 Al 
  0.2510198  0.2533229  0.0238850

 Al 
  0.5017858  0.9989307  0.9964049

 Al 
  0.5077657  0.2492859  0.2634597

 Al 
  0.7681711  0.0010977  0.2519764

 Al 
  0.7486412  0.2431575  0.9912950

 Al 
  0.0021942  0.5011299  0.0107012

 Al 
  0.0123632  0.7370539  0.2633125

 Al 
  0.2616393  0.5071370  0.2461165

 Al 
  0.2562485  0.7238565  0.0005965

 Al 
  0.9878632  0.0096468  0.5004245

 Al 
  0.0092619  0.2533402  0.7668630

 Al 
  0.2582694  0.0069427  0.7497240

 Al 
  0.2542844  0.2702106  0.4895599

 Al 
  0.9868187  0.4968442  0.5137827

 Al 
  0.0105044  0.7430585  0.7602755

 Al 
  0.2475917  0.4920190  0.7648272

 Al 
  0.2446500  0.7663036  0.5047324

 Al 
  0.5087966  0.4805430  0.0049960

 Al 
  0.4859933  0.7615984  0.2219370

 Al 
  0.7552634  0.5058252  0.2524838

 Al 
  0.7553277  0.7592137  0.0011621

 Al 
  0.5077298  0.9980781  0.4712081

 Al 
  0.4993862  0.2469383  0.7256027

 Al 
  0.7430288  0.0060665  0.7382036

 Al 
  0.7573623  0.2612037  0.5056247

 Al 
  0.4938444  0.5134746  0.5100082

 Al 
  0.4909955  0.7352643  0.7513972

 Al 
  0.7419435  0.5046000  0.7472563

 Al 
  0.7254492  0.7377110  0.4774677

