32 
charge = 0 
 Al 
  0.9956277  0.9959457  0.9926885

 Al 
  0.9931117  0.2547300  0.2590305

 Al 
  0.2408717  0.9881132  0.2414175

 Al 
  0.2560529  0.2519529  0.0248812

 Al 
  0.5029937  0.0006794  0.9980261

 Al 
  0.5053982  0.2469667  0.2599154

 Al 
  0.7667653  0.0013774  0.2535271

 Al 
  0.7509393  0.2443171  0.9906972

 Al 
  0.0012252  0.4993763  0.0094253

 Al 
  0.0115192  0.7384263  0.2650129

 Al 
  0.2629214  0.5074873  0.2402629

 Al 
  0.2589018  0.7244542  0.9986263

 Al 
  0.9858967  0.0118843  0.5013687

 Al 
  0.0081122  0.2515866  0.7636194

 Al 
  0.2557114  0.0057163  0.7516323

 Al 
  0.2536743  0.2686600  0.4947738

 Al 
  0.9880637  0.4983058  0.5091939

 Al 
  0.0091369  0.7448159  0.7589550

 Al 
  0.2476066  0.4926427  0.7663643

 Al 
  0.2434620  0.7703047  0.5067682

 Al 
  0.5097062  0.4818784  0.0068264

 Al 
  0.4847495  0.7644226  0.2247166

 Al 
  0.7549366  0.5050295  0.2512326

 Al 
  0.7560071  0.7601270  0.0031038

 Al 
  0.5091790  0.9942565  0.4706537

 Al 
  0.4974123  0.2459693  0.7266658

 Al 
  0.7425721  0.0018118  0.7381070

 Al 
  0.7571185  0.2628558  0.5064106

 Al 
  0.4948406  0.5123595  0.5090528

 Al 
  0.4913507  0.7350057  0.7546409

 Al 
  0.7406911  0.5023514  0.7433679

 Al 
  0.7234456  0.7361900  0.4790345

