32 
charge = 0 
 Al 
  0.9991325  0.9998800  0.9942478

 Al 
  0.9977167  0.2613732  0.2568363

 Al 
  0.2424620  0.9854921  0.2389238

 Al 
  0.2652443  0.2484877  0.0247141

 Al 
  0.5051817  0.0052906  0.0002153

 Al 
  0.5013514  0.2434582  0.2519566

 Al 
  0.7630538  0.0017153  0.2547386

 Al 
  0.7553017  0.2468888  0.9905289

 Al 
  0.9981820  0.4956401  0.0069403

 Al 
  0.0079229  0.7420635  0.2671576

 Al 
  0.2645760  0.5068078  0.2324860

 Al 
  0.2620254  0.7290926  0.9938976

 Al 
  0.9843114  0.0148965  0.5040332

 Al 
  0.0055752  0.2481548  0.7567088

 Al 
  0.2506101  0.0034305  0.7552720

 Al 
  0.2513230  0.2639560  0.5046990

 Al 
  0.9927702  0.5024850  0.5002772

 Al 
  0.0048079  0.7485830  0.7555406

 Al 
  0.2482179  0.4928754  0.7674979

 Al 
  0.2421167  0.7760210  0.5104921

 Al 
  0.5119412  0.4853621  0.0091344

 Al 
  0.4854388  0.7670635  0.2326828

 Al 
  0.7531694  0.5022845  0.2474135

 Al 
  0.7568276  0.7599488  0.0066717

 Al 
  0.5101666  0.9876244  0.4726684

 Al 
  0.4936860  0.2442453  0.7310727

 Al 
  0.7414732  0.9923457  0.7383904

 Al 
  0.7550158  0.2651403  0.5071494

 Al 
  0.4947193  0.5083597  0.5048055

 Al 
  0.4930239  0.7367370  0.7610898

 Al 
  0.7397666  0.4983578  0.7381714

 Al 
  0.7228900  0.7359363  0.4835862

