32 
charge = 0 
 Al 
  0.9980149  0.9987414  0.9936624

 Al 
  0.9962428  0.2595156  0.2576345

 Al 
  0.2420647  0.9859376  0.2395537

 Al 
  0.2627655  0.2495570  0.0250792

 Al 
  0.5045703  0.0038760  0.9997265

 Al 
  0.5024095  0.2443505  0.2542436

 Al 
  0.7641750  0.0016224  0.2546223

 Al 
  0.7540889  0.2461388  0.9904695

 Al 
  0.9991510  0.4967044  0.0076741

 Al 
  0.0091679  0.7408990  0.2667244

 Al 
  0.2642382  0.5071593  0.2342087

 Al 
  0.2614178  0.7273303  0.9953022

 Al 
  0.9844958  0.0142060  0.5032239

 Al 
  0.0063252  0.2490953  0.7587261

 Al 
  0.2520420  0.0040617  0.7542226

 Al 
  0.2521199  0.2654869  0.5019652

 Al 
  0.9911539  0.5011485  0.5027610

 Al 
  0.0062497  0.7474964  0.7565974

 Al 
  0.2479890  0.4929372  0.7674175

 Al 
  0.2423816  0.7746832  0.5094723

 Al 
  0.5112247  0.4842632  0.0086716

 Al 
  0.4848708  0.7667059  0.2301693

 Al 
  0.7538105  0.5031855  0.2486436

 Al 
  0.7566383  0.7602247  0.0056804

 Al 
  0.5101270  0.9893112  0.4716759

 Al 
  0.4947020  0.2447342  0.7295258

 Al 
  0.7418308  0.9951488  0.7382407

 Al 
  0.7558203  0.2646490  0.5070690

 Al 
  0.4950522  0.5097099  0.5062881

 Al 
  0.4924088  0.7359970  0.7593028

 Al 
  0.7398359  0.4994221  0.7393248

 Al 
  0.7226115  0.7357049  0.4821172

