32 
charge = 0 
 Al 
  0.0007524  0.0014331  0.9952230

 Al 
  0.9999059  0.2637926  0.2555826

 Al 
  0.2429298  0.9852297  0.2381862

 Al 
  0.2683865  0.2469680  0.0237662

 Al 
  0.5060257  0.0072459  0.0007203

 Al 
  0.5000582  0.2423469  0.2489629

 Al 
  0.7614994  0.0018712  0.2546446

 Al 
  0.7569143  0.2479085  0.9907084

 Al 
  0.9967922  0.4942416  0.0058549

 Al 
  0.0059960  0.7438332  0.2674991

 Al 
  0.2648507  0.5061791  0.2307052

 Al 
  0.2625080  0.7320083  0.9919979

 Al 
  0.9843386  0.0156502  0.5051223

 Al 
  0.0045109  0.2469630  0.7539305

 Al 
  0.2487142  0.0025976  0.7567484

 Al 
  0.2501151  0.2616479  0.5082521

 Al 
  0.9952750  0.5044478  0.4970138

 Al 
  0.0025890  0.7500495  0.7540221

 Al 
  0.2485706  0.4926526  0.7673246

 Al 
  0.2418816  0.7774751  0.5118224

 Al 
  0.5130204  0.4869920  0.0094983

 Al 
  0.4866009  0.7670610  0.2362928

 Al 
  0.7521385  0.5009405  0.2456265

 Al 
  0.7570566  0.7593436  0.0079947

 Al 
  0.5099265  0.9856839  0.4745508

 Al 
  0.4923964  0.2435672  0.7335157

 Al 
  0.7409212  0.9884424  0.7386949

 Al 
  0.7536805  0.2655735  0.5070615

 Al 
  0.4939050  0.5063004  0.5024999

 Al 
  0.4940510  0.7379919  0.7633929

 Al 
  0.7399003  0.4970175  0.7369982

 Al 
  0.7237884  0.7365403  0.4857866

