32 
charge = 0 
 Al 
  0.0015903  0.0022016  0.9957873

 Al 
  0.0010717  0.2649349  0.2548983

 Al 
  0.2431365  0.9852396  0.2378781

 Al 
  0.2698307  0.2461957  0.0230830

 Al 
  0.5064588  0.0082026  0.0009047

 Al 
  0.4994901  0.2418346  0.2475608

 Al 
  0.7607210  0.0019702  0.2544961

 Al 
  0.7576989  0.2484110  0.9908358

 Al 
  0.9960819  0.4935795  0.0052609

 Al 
  0.0049453  0.7448022  0.2675561

 Al 
  0.2649040  0.5058128  0.2300480

 Al 
  0.2625984  0.7336766  0.9910796

 Al 
  0.9844587  0.0159485  0.5056433

 Al 
  0.0039540  0.2464210  0.7525407

 Al 
  0.2477996  0.0021917  0.7575083

 Al 
  0.2494678  0.2604017  0.5099376

 Al 
  0.9966462  0.5054750  0.4954495

 Al 
  0.0013762  0.7507661  0.7532375

 Al 
  0.2487600  0.4924905  0.7671204

 Al 
  0.2418148  0.7780382  0.5124585

 Al 
  0.5135983  0.4878620  0.0095577

 Al 
  0.4873311  0.7668482  0.2381454

 Al 
  0.7515593  0.5002252  0.2447057

 Al 
  0.7571642  0.7589562  0.0086394

 Al 
  0.5096827  0.9848968  0.4757240

 Al 
  0.4918036  0.2432243  0.7348720

 Al 
  0.7406180  0.9864710  0.7388941

 Al 
  0.7529157  0.2656787  0.5069204

 Al 
  0.4933518  0.5051891  0.5012400

 Al 
  0.4946475  0.7387122  0.7644646

 Al 
  0.7400636  0.4963987  0.7365823

 Al 
  0.7244579  0.7369462  0.4869709

