32 
charge = 0 
 Al 
  0.9995260  0.0002673  0.9944706

 Al 
  0.9982427  0.2619895  0.2565405

 Al 
  0.2425858  0.9853906  0.2387258

 Al 
  0.2660537  0.2481152  0.0245285

 Al 
  0.5053896  0.0057769  0.0003577

 Al 
  0.5010123  0.2431711  0.2511942

 Al 
  0.7626689  0.0017499  0.2547411

 Al 
  0.7557064  0.2471437  0.9905636

 Al 
  0.9978429  0.4952849  0.0066816

 Al 
  0.0074675  0.7424830  0.2672702

 Al 
  0.2646639  0.5066667  0.2319836

 Al 
  0.2621826  0.7297634  0.9934211

 Al 
  0.9842891  0.0151032  0.5043067

 Al 
  0.0053166  0.2478479  0.7560195

 Al 
  0.2501312  0.0032214  0.7556346

 Al 
  0.2510358  0.2634065  0.5056024

 Al 
  0.9933617  0.5029602  0.4994518

 Al 
  0.0042832  0.7489505  0.7551705

 Al 
  0.2483008  0.4928345  0.7674855

 Al 
  0.2420449  0.7764220  0.5108299

 Al 
  0.5121987  0.4857532  0.0092545

 Al 
  0.4856876  0.7671155  0.2335639

 Al 
  0.7529293  0.5019615  0.2469779

 Al 
  0.7568870  0.7598213  0.0070046

 Al 
  0.5101381  0.9871009  0.4730781

 Al 
  0.4933543  0.2440783  0.7316457

 Al 
  0.7413420  0.9913829  0.7384560

 Al 
  0.7547089  0.2652740  0.5071494

 Al 
  0.4945547  0.5078697  0.5042622

 Al 
  0.4932590  0.7370242  0.7616789

 Al 
  0.7397753  0.4980125  0.7378372

 Al 
  0.7230583  0.7360589  0.4841122

