32 
charge = 0 
 Al 
  0.0011707  0.0018192  0.9954990

 Al 
  0.0004839  0.2643718  0.2552436

 Al 
  0.2430350  0.9852223  0.2380253

 Al 
  0.2691216  0.2465806  0.0234419

 Al 
  0.5062423  0.0077286  0.0008180

 Al 
  0.4997661  0.2420858  0.2482501

 Al 
  0.7611084  0.0019182  0.2545777

 Al 
  0.7573090  0.2481610  0.9907690

 Al 
  0.9964371  0.4939062  0.0055616

 Al 
  0.0054762  0.7443109  0.2675375

 Al 
  0.2648842  0.5059997  0.2303574

 Al 
  0.2625662  0.7328276  0.9915338

 Al 
  0.9843906  0.0158061  0.5053871

 Al 
  0.0042337  0.2466870  0.7532338

 Al 
  0.2482526  0.0023934  0.7571271

 Al 
  0.2497933  0.2610316  0.5091047

 Al 
  0.9959532  0.5049602  0.4962230

 Al 
  0.0019900  0.7504109  0.7536310

 Al 
  0.2486647  0.4925746  0.7672318

 Al 
  0.2418445  0.7777721  0.5121442

 Al 
  0.5133063  0.4874239  0.0095391

 Al 
  0.4869549  0.7669719  0.2372185

 Al 
  0.7518526  0.5005854  0.2451661

 Al 
  0.7571110  0.7591555  0.0083189

 Al 
  0.5098151  0.9852730  0.4751188

 Al 
  0.4920945  0.2433951  0.7341852

 Al 
  0.7407715  0.9874561  0.7387914

 Al 
  0.7533055  0.2656366  0.5069997

 Al 
  0.4936402  0.5057497  0.5018774

 Al 
  0.4943431  0.7383459  0.7639374

 Al 
  0.7399745  0.4967031  0.7367754

 Al 
  0.7241065  0.7367358  0.4863732

