32 
charge = 0 
 Al 
  0.0024256  0.0029479  0.9963913

 Al 
  0.0022610  0.2660054  0.2541929

 Al 
  0.2433246  0.9853374  0.2376207

 Al 
  0.2711549  0.2454346  0.0222613

 Al 
  0.5068994  0.0091097  0.0010433

 Al 
  0.4989926  0.2413593  0.2462638

 Al 
  0.7599562  0.0020853  0.2542882

 Al 
  0.7584563  0.2488961  0.9909844

 Al 
  0.9953814  0.4929620  0.0046322

 Al 
  0.0038575  0.7458183  0.2675276

 Al 
  0.2648978  0.5054242  0.2295456

 Al 
  0.2625872  0.7354512  0.9902084

 Al 
  0.9846418  0.0161873  0.5061309

 Al 
  0.0033835  0.2459284  0.7511782

 Al 
  0.2469259  0.0017969  0.7582719

 Al 
  0.2488070  0.2591122  0.5115304

 Al 
  0.9980682  0.5065083  0.4939619

 Al 
  0.0001126  0.7514578  0.7524516

 Al 
  0.2489505  0.4923011  0.7668445

 Al 
  0.2417789  0.7784813  0.5130649

 Al 
  0.5141899  0.4887567  0.0095305

 Al 
  0.4881404  0.7664992  0.2399856

 Al 
  0.7509504  0.4994926  0.2437936

 Al 
  0.7572707  0.7585231  0.0092619

 Al 
  0.5093609  0.9842570  0.4770383

 Al 
  0.4912640  0.2428840  0.7362915

 Al 
  0.7403049  0.9845243  0.7391255

 Al 
  0.7521026  0.2657034  0.5067138

 Al 
  0.4927145  0.5040456  0.4999332

 Al 
  0.4952923  0.7394770  0.7654584

 Al 
  0.7402851  0.4958257  0.7362841

 Al 
  0.7252624  0.7374029  0.4881924

