32 
charge = 0 
 Al 
  0.0003379  0.0010445  0.9949594

 Al 
  0.9993391  0.2632011  0.2559131

 Al 
  0.2428197  0.9852594  0.2383558

 Al 
  0.2676278  0.2473541  0.0240545

 Al 
  0.5058116  0.0067571  0.0006101

 Al 
  0.5003638  0.2426142  0.2496931

 Al 
  0.7618905  0.0018279  0.2546941

 Al 
  0.7565145  0.2476548  0.9906539

 Al 
  0.9971462  0.4945844  0.0061383

 Al 
  0.0065022  0.7433691  0.2674422

 Al 
  0.2648025  0.5063512  0.2310925

 Al 
  0.2624239  0.7312237  0.9924694

 Al 
  0.9843040  0.0154807  0.5048537

 Al 
  0.0047832  0.2472501  0.7546285

 Al 
  0.2491820  0.0028043  0.7563722

 Al 
  0.2504294  0.2622506  0.5073821

 Al 
  0.9946166  0.5039429  0.4978169

 Al 
  0.0031731  0.7496844  0.7544107

 Al 
  0.2484790  0.4927219  0.7673977

 Al 
  0.2419274  0.7771509  0.5114957

 Al 
  0.5127395  0.4865687  0.0094364

 Al 
  0.4862705  0.7671143  0.2353732

 Al 
  0.7524132  0.5012895  0.2460831

 Al 
  0.7570009  0.7595181  0.0076667

 Al 
  0.5100181  0.9861282  0.4740211

 Al 
  0.4927083  0.2437392  0.7328684

 Al 
  0.7410660  0.9894287  0.7386070

 Al 
  0.7540394  0.2654918  0.5071061

 Al 
  0.4941476  0.5068388  0.5031075

 Al 
  0.4937726  0.7376528  0.7628323

 Al 
  0.7398421  0.4973417  0.7372494

 Al 
  0.7235075  0.7363621  0.4852136

