32 
charge = 0 
 Al 
  0.0032437  0.0036607  0.9970261

 Al 
  0.0034577  0.2669868  0.2534776

 Al 
  0.2434978  0.9855180  0.2374227

 Al 
  0.2723355  0.2447032  0.0213071

 Al 
  0.5073462  0.0099438  0.0011386

 Al 
  0.4985743  0.2409274  0.2450993

 Al 
  0.7592137  0.0022202  0.2540295

 Al 
  0.7591765  0.2493565  0.9911502

 Al 
  0.9947032  0.4924014  0.0039713

 Al 
  0.0027499  0.7468714  0.2674137

 Al 
  0.2648334  0.5050257  0.2291929

 Al 
  0.2624759  0.7373063  0.9894040

 Al 
  0.9848757  0.0163655  0.5065715

 Al 
  0.0028018  0.2454965  0.7498639

 Al 
  0.2461054  0.0014170  0.7590305

 Al 
  0.2481461  0.2577929  0.5130055

 Al 
  0.9995198  0.5075306  0.4925734

 Al 
  0.9988169  0.7521138  0.7516757

 Al 
  0.2491387  0.4920957  0.7665017

 Al 
  0.2417739  0.7787993  0.5136330

 Al 
  0.5147827  0.4896639  0.0094154

 Al 
  0.4890092  0.7660240  0.2417801

 Al 
  0.7503230  0.4987525  0.2429088

 Al 
  0.7573734  0.7580578  0.0098522

 Al 
  0.5089674  0.9837768  0.4784763

 Al 
  0.4907876  0.2425536  0.7377518

 Al 
  0.7399856  0.9826320  0.7393854

 Al 
  0.7512512  0.2656428  0.5064390

 Al 
  0.4920091  0.5028885  0.4986053

 Al 
  0.4959767  0.7402703  0.7663569

 Al 
  0.7405623  0.4953035  0.7361034

 Al 
  0.7261868  0.7378991  0.4894374

