32 
charge = 0 
 Al 
  0.0057807  0.0057992  0.9993701

 Al 
  0.0074947  0.2695683  0.2510606

 Al 
  0.2440399  0.9866690  0.2372543

 Al 
  0.2751324  0.2425585  0.0170846

 Al 
  0.5089661  0.0120105  0.0011621

 Al 
  0.4978157  0.2397926  0.2422937

 Al 
  0.7568747  0.0028427  0.2528328

 Al 
  0.7612853  0.2506621  0.9918160

 Al 
  0.9926786  0.4910339  0.0014281

 Al 
  0.9989196  0.7507388  0.2663408

 Al 
  0.2641775  0.5036780  0.2289590

 Al 
  0.2613583  0.7440250  0.9872890

 Al 
  0.9859611  0.0164893  0.5076407

 Al 
  0.0006720  0.2445386  0.7458566

 Al 
  0.2437528  0.0002190  0.7615279

 Al 
  0.2459804  0.2531434  0.5170573

 Al 
  0.0045666  0.5108076  0.4886652

 Al 
  0.9942738  0.7540270  0.7491795

 Al 
  0.2497364  0.4913544  0.7649077

 Al 
  0.2419534  0.7789392  0.5152591

 Al 
  0.5167145  0.4927974  0.0083548

 Al 
  0.4922925  0.7635525  0.2473863

 Al 
  0.7481325  0.4962131  0.2402517

 Al 
  0.7577162  0.7563103  0.0115898

 Al 
  0.5071556  0.9833981  0.4842335

 Al 
  0.4897517  0.2415450  0.7429026

 Al 
  0.7389152  0.9767858  0.7405178

 Al 
  0.7481424  0.2647852  0.5049998

 Al 
  0.4892233  0.4989394  0.4940634

 Al 
  0.4985446  0.7431018  0.7686117

 Al 
  0.7418531  0.4939062  0.7363163

 Al 
  0.7301371  0.7397691  0.4937899

