32 
charge = 0 
 Al 
  0.0079563  0.0077075  0.0023910

 Al 
  0.0120180  0.2708133  0.2483602

 Al 
  0.2448517  0.9889535  0.2383558

 Al 
  0.2755829  0.2411230  0.0101715

 Al 
  0.5112668  0.0122890  0.0007487

 Al 
  0.4983491  0.2391924  0.2415920

 Al 
  0.7544131  0.0040122  0.2509839

 Al 
  0.7629202  0.2513737  0.9927367

 Al 
  0.9912046  0.4908705  0.9976115

 Al 
  0.9944891  0.7559552  0.2635365

 Al 
  0.2624882  0.5023464  0.2301322

 Al 
  0.2585503  0.7523031  0.9863930

 Al 
  0.9875662  0.0155500  0.5077744

 Al 
  0.9976028  0.2445634  0.7423308

 Al 
  0.2419237  0.9989679  0.7641107

 Al 
  0.2438369  0.2473133  0.5196525

 Al 
  0.0105836  0.5140327  0.4858386

 Al 
  0.9889263  0.7554898  0.7466957

 Al 
  0.2502834  0.4907121  0.7622556

 Al 
  0.2425053  0.7771435  0.5165041

 Al 
  0.5184644  0.4965497  0.0056594

 Al 
  0.4965868  0.7591827  0.2527363

 Al 
  0.7456920  0.4932342  0.2382555

 Al 
  0.7581036  0.7540852  0.0129870

 Al 
  0.5041817  0.9855799  0.4926860

 Al 
  0.4900772  0.2407232  0.7490533

 Al 
  0.7379127  0.9717539  0.7425449

 Al 
  0.7441661  0.2623150  0.5022858

 Al 
  0.4854846  0.4943988  0.4890401

 Al 
  0.5018477  0.7464296  0.7695003

 Al 
  0.7439421  0.4929607  0.7380563

 Al 
  0.7362235  0.7420759  0.4990199

