32 
charge = 0 
 Al 
  0.0085961  0.0084686  0.0040419

 Al 
  0.0142258  0.2705534  0.2470348

 Al 
  0.2454977  0.9905438  0.2396738

 Al 
  0.2744060  0.2410289  0.0057893

 Al 
  0.5126887  0.0112395  0.0004369

 Al 
  0.4992005  0.2392357  0.2423692

 Al 
  0.7531781  0.0048661  0.2499233

 Al 
  0.7633137  0.2512178  0.9932516

 Al 
  0.9910240  0.4915957  0.9951463

 Al 
  0.9923147  0.7590206  0.2613088

 Al 
  0.2611702  0.5018526  0.2311259

 Al 
  0.2564044  0.7565739  0.9867791

 Al 
  0.9884548  0.0145092  0.5072360

 Al 
  0.9956265  0.2451054  0.7410970

 Al 
  0.2413705  0.9983837  0.7651552

 Al 
  0.2429966  0.2440498  0.5199619

 Al 
  0.0137555  0.5153458  0.4851517

 Al 
  0.9863175  0.7558227  0.7456920

 Al 
  0.2504703  0.4906440  0.7605391

 Al 
  0.2429310  0.7752908  0.5168383

 Al 
  0.5189533  0.4985397  0.0035518

 Al 
  0.4989728  0.7563883  0.2549973

 Al 
  0.7446117  0.4916972  0.2379065

 Al 
  0.7582682  0.7529008  0.0133743

 Al 
  0.5023006  0.9878558  0.4978330

 Al 
  0.4911341  0.2405178  0.7521880

 Al 
  0.7376627  0.9703678  0.7440622

 Al 
  0.7419930  0.2603015  0.5004220

 Al 
  0.4834711  0.4920907  0.4867234

 Al 
  0.5035308  0.7480249  0.7691575

 Al 
  0.7452156  0.4927367  0.7395228

 Al 
  0.7399448  0.7432305  0.5017091

