32 
charge = 0 
 Al 
  0.0088114  0.0089748  0.0053512

 Al 
  0.0158544  0.2698715  0.2460348

 Al 
  0.2461636  0.9919979  0.2411230

 Al 
  0.2727674  0.2413173  0.0020643

 Al 
  0.5138780  0.0097879  0.0001955

 Al 
  0.5000681  0.2394510  0.2434570

 Al 
  0.7521991  0.0056606  0.2490929

 Al 
  0.7633582  0.2507846  0.9936649

 Al 
  0.9912442  0.4926043  0.9929744

 Al 
  0.9907356  0.7615811  0.2591815

 Al 
  0.2599178  0.5015915  0.2319799

 Al 
  0.2544008  0.7597978  0.9875452

 Al 
  0.9891453  0.0133979  0.5064885

 Al 
  0.9938691  0.2457725  0.7404361

 Al 
  0.2411254  0.9979642  0.7657480

 Al 
  0.2425066  0.2413655  0.5196711

 Al 
  0.0162430  0.5161589  0.4849748

 Al 
  0.9844748  0.7558500  0.7450980

 Al 
  0.2505705  0.4907863  0.7590330

 Al 
  0.2433456  0.7733899  0.5169385

 Al 
  0.5190461  0.5001052  0.0015482

 Al 
  0.5009108  0.7540171  0.2565653

 Al 
  0.7439211  0.4905079  0.2380315

 Al 
  0.7583498  0.7519789  0.0134783

 Al 
  0.5006893  0.9901342  0.5022078

 Al 
  0.4924756  0.2404906  0.7545629

 Al 
  0.7376813  0.9700943  0.7455398

 Al 
  0.7402703  0.2583523  0.4987674

 Al 
  0.4819229  0.4903136  0.4851245

 Al 
  0.5047225  0.7491411  0.7685028

 Al 
  0.7462663  0.4926687  0.7408866

 Al 
  0.7430635  0.7440919  0.5037325

