32 
charge = 0 
 Al 
  0.0086741  0.0086023  0.0043698

 Al 
  0.0146441  0.2704223  0.2467799

 Al 
  0.2456512  0.9908915  0.2400030

 Al 
  0.2740533  0.2410710  0.0048735

 Al 
  0.5129833  0.0109277  0.0003750

 Al 
  0.4994047  0.2392753  0.2426068

 Al 
  0.7529330  0.0050554  0.2497129

 Al 
  0.7633483  0.2511361  0.9933543

 Al 
  0.9910475  0.4918123  0.9946191

 Al 
  0.9919051  0.7596517  0.2608052

 Al 
  0.2608732  0.5017759  0.2313376

 Al 
  0.2559267  0.7573981  0.9869313

 Al 
  0.9886293  0.0142542  0.5070751

 Al 
  0.9952020  0.2452539  0.7409064

 Al 
  0.2412925  0.9982748  0.7653247

 Al 
  0.2428580  0.2433865  0.5199334

 Al 
  0.0143830  0.5155685  0.4850775

 Al 
  0.9858336  0.7558500  0.7455250

 Al 
  0.2504987  0.4906626  0.7601728

 Al 
  0.2430276  0.7748503  0.5168779

 Al 
  0.5190028  0.4989332  0.0030766

 Al 
  0.4994542  0.7558054  0.2554069

 Al 
  0.7444235  0.4913965  0.2379041

 Al 
  0.7582941  0.7526682  0.0134177

 Al 
  0.5019071  0.9883892  0.4989048

 Al 
  0.4914274  0.2404992  0.7527932

 Al 
  0.7376479  0.9702267  0.7444087

 Al 
  0.7415598  0.2598423  0.5000210

 Al 
  0.4830776  0.4916415  0.4863014

 Al 
  0.5038451  0.7483182  0.7690250

 Al 
  0.7454767  0.4927108  0.7398507

 Al 
  0.7407146  0.7434508  0.5022264

