32 
charge = 0 
 Al 
  0.0088238  0.0090899  0.0056755

 Al 
  0.0162405  0.2696364  0.2457923

 Al 
  0.2463529  0.9923878  0.2415413

 Al 
  0.2722650  0.2414398  0.0011126

 Al 
  0.5141750  0.0093411  0.0001398

 Al 
  0.5003020  0.2395277  0.2437825

 Al 
  0.7519541  0.0058735  0.2488911

 Al 
  0.7633310  0.2506336  0.9937689

 Al 
  0.9913532  0.4929150  0.9924076

 Al 
  0.9903668  0.7622321  0.2586023

 Al 
  0.2595800  0.5015470  0.2321927

 Al 
  0.2538637  0.7605713  0.9878013

 Al 
  0.9893136  0.0130823  0.5062584

 Al 
  0.9934050  0.2459680  0.7403136

 Al 
  0.2410896  0.9978677  0.7658569

 Al 
  0.2424100  0.2406824  0.5195250

 Al 
  0.0168544  0.5163272  0.4849760

 Al 
  0.9840565  0.7558240  0.7449829

 Al 
  0.2505903  0.4908507  0.7586394

 Al 
  0.2434607  0.7728590  0.5169410

 Al 
  0.5190238  0.5004913  0.0010061

 Al 
  0.5013997  0.7534107  0.2569291

 Al 
  0.7437763  0.4902171  0.2381194

 Al 
  0.7583610  0.7517536  0.0134758

 Al 
  0.5002747  0.9907579  0.5033352

 Al 
  0.4928815  0.2405042  0.7551359

 Al 
  0.7377221  0.9701537  0.7459482

 Al 
  0.7398458  0.2578177  0.4983355

 Al 
  0.4815492  0.4898780  0.4847656

 Al 
  0.5049899  0.7493948  0.7682887

 Al 
  0.7465299  0.4926650  0.7412467

 Al 
  0.7438567  0.7442998  0.5042151

