32 
charge = 0 
 Al 
  0.0087966  0.0093089  0.0063165

 Al 
  0.0169843  0.2690906  0.2453171

 Al 
  0.2467601  0.9931996  0.2424422

 Al 
  0.2711561  0.2417405  0.9991943

 Al 
  0.5147641  0.0083573  0.0000408

 Al 
  0.5007784  0.2397097  0.2444805

 Al 
  0.7514628  0.0063128  0.2484988

 Al 
  0.7632258  0.2502797  0.9939768

 Al 
  0.9916378  0.4936043  0.9912492

 Al 
  0.9896651  0.7635439  0.2573969

 Al 
  0.2588733  0.5014826  0.2326110

 Al 
  0.2527511  0.7620687  0.9883904

 Al 
  0.9896416  0.0124041  0.5057485

 Al 
  0.9924533  0.2463900  0.7401144

 Al 
  0.2410499  0.9976820  0.7660252

 Al 
  0.2422516  0.2393075  0.5191500

 Al 
  0.0180585  0.5166217  0.4850329

 Al 
  0.9832805  0.7557312  0.7447923

 Al 
  0.2506262  0.4910202  0.7578313

 Al 
  0.2437119  0.7717353  0.5169200

 Al 
  0.5189199  0.5012561  0.9998750

 Al 
  0.5023811  0.7521892  0.2576271

 Al 
  0.7435263  0.4896441  0.2383620

 Al 
  0.7583696  0.7513106  0.0134325

 Al 
  0.4994307  0.9920623  0.5056222

 Al 
  0.4937800  0.2405574  0.7562546

 Al 
  0.7378484  0.9704322  0.7468096

 Al 
  0.7390067  0.2566989  0.4974580

 Al 
  0.4808227  0.4890203  0.4841010

 Al 
  0.5054812  0.7498663  0.7678011

 Al 
  0.7470546  0.4926712  0.7419818

 Al 
  0.7454507  0.7447032  0.5051470

