32 
charge = 0 
 Al 
  0.0087001  0.0095131  0.0069440

 Al 
  0.0176823  0.2684471  0.2448555

 Al 
  0.2472068  0.9940510  0.2434261

 Al 
  0.2699161  0.2421167  0.9972724

 Al 
  0.5153309  0.0072546  0.9999604

 Al 
  0.5012574  0.2399238  0.2452317

 Al 
  0.7509727  0.0067670  0.2481251

 Al 
  0.7630563  0.2498614  0.9941859

 Al 
  0.9920091  0.4943790  0.9900710

 Al 
  0.9890166  0.7648532  0.2561334

 Al 
  0.2581333  0.5014541  0.2330107

 Al 
  0.2515977  0.7634907  0.9890785

 Al 
  0.9899572  0.0116690  0.5051767

 Al 
  0.9914732  0.2468455  0.7399745

 Al 
  0.2410512  0.9975125  0.7661205

 Al 
  0.2421365  0.2379263  0.5186674

 Al 
  0.0192280  0.5168531  0.4851542

 Al 
  0.9825949  0.7555888  0.7446612

 Al 
  0.2506596  0.4912405  0.7570009

 Al 
  0.2439879  0.7705386  0.5168630

 Al 
  0.5187355  0.5020036  0.9986919

 Al 
  0.5033625  0.7509678  0.2582867

 Al 
  0.7433320  0.4890884  0.2386912

 Al 
  0.7583560  0.7508799  0.0133422

 Al 
  0.4985768  0.9934261  0.5079402

 Al 
  0.4947886  0.2406477  0.7573276

 Al 
  0.7380427  0.9709297  0.7477266

 Al 
  0.7381912  0.2555183  0.4965720

 Al 
  0.4801297  0.4881838  0.4835169

 Al 
  0.5059032  0.7502859  0.7672392

 Al 
  0.7475731  0.4926922  0.7427281

 Al 
  0.7470398  0.7450931  0.5060257

