32 
charge = 0 
 Al 
  0.0081630  0.0099710  0.0083993

 Al 
  0.0191736  0.2664695  0.2437775

 Al 
  0.2484840  0.9963046  0.2461821

 Al 
  0.2663408  0.2433419  0.9925907

 Al 
  0.5165759  0.0040852  0.9998886

 Al 
  0.5023848  0.2405636  0.2472142

 Al 
  0.7497673  0.0079254  0.2473034

 Al 
  0.7623571  0.2485830  0.9947094

 Al 
  0.9932961  0.4966215  0.9871256

 Al 
  0.9876801  0.7680189  0.2528142

 Al 
  0.2561841  0.5015668  0.2338696

 Al 
  0.2486226  0.7666093  0.9912071

 Al 
  0.9906700  0.0096307  0.5035209

 Al 
  0.9889708  0.2480904  0.7398582

 Al 
  0.2412096  0.9971647  0.7660178

 Al 
  0.2420425  0.2345230  0.5170524

 Al 
  0.0218950  0.5171378  0.4857024

 Al 
  0.9813574  0.7550295  0.7446216

 Al 
  0.2507450  0.4920016  0.7548574

 Al 
  0.2448010  0.7673061  0.5165722

 Al 
  0.5179211  0.5037560  0.9955918

 Al 
  0.5057683  0.7480013  0.2597532

 Al 
  0.7431352  0.4878063  0.2398582

 Al 
  0.7582137  0.7498849  0.0129004

 Al 
  0.4964457  0.9969754  0.5137345

 Al 
  0.4977328  0.2410388  0.7597582

 Al 
  0.7388397  0.9731313  0.7502166

 Al 
  0.7363286  0.2523749  0.4944099

 Al 
  0.4786025  0.4862222  0.4824786

 Al 
  0.5066148  0.7510705  0.7655401

 Al 
  0.7487909  0.4928060  0.7445522

 Al 
  0.7508849  0.7459878  0.5079204

