32 
charge = 0 
 Al 
  0.0078350  0.0101381  0.0089142

 Al 
  0.0196438  0.2655599  0.2433840

 Al 
  0.2490545  0.9972340  0.2473727

 Al 
  0.2647678  0.2439285  0.9908198

 Al 
  0.5169695  0.0026991  0.9999270

 Al 
  0.5027734  0.2408458  0.2479964

 Al 
  0.7493020  0.0083783  0.2470323

 Al 
  0.7619808  0.2480075  0.9949210

 Al 
  0.9939384  0.4976041  0.9859908

 Al 
  0.9872779  0.7691946  0.2514690

 Al 
  0.2553883  0.5016905  0.2341369

 Al 
  0.2474358  0.7676427  0.9921984

 Al 
  0.9909188  0.0087595  0.5027944

 Al 
  0.9879845  0.2486090  0.7398891

 Al 
  0.2413259  0.9970633  0.7658346

 Al 
  0.2420759  0.2332236  0.5162764

 Al 
  0.0228182  0.5171254  0.4860044

 Al 
  0.9810764  0.7547362  0.7447243

 Al 
  0.2507859  0.4923803  0.7539911

 Al 
  0.2451785  0.7659596  0.5163989

 Al 
  0.5174595  0.5043946  0.9943394

 Al 
  0.5066890  0.7468875  0.2602631

 Al 
  0.7431847  0.4873521  0.2404398

 Al 
  0.7581073  0.7495248  0.0126417

 Al 
  0.4956178  0.9983936  0.5159868

 Al 
  0.4990446  0.2412628  0.7606096

 Al 
  0.7392877  0.9743738  0.7512611

 Al 
  0.7356839  0.2510792  0.4936068

 Al 
  0.4780939  0.4855057  0.4822534

 Al 
  0.5067497  0.7512673  0.7647592

 Al 
  0.7492327  0.4928729  0.7452304

 Al 
  0.7523204  0.7463071  0.5085342

