32 
charge = 0 
 Al 
  0.0065306  0.0106195  0.0101257

 Al 
  0.0205299  0.2625872  0.2423605

 Al 
  0.2509368  0.9999926  0.2510829

 Al 
  0.2597978  0.2459259  0.9860527

 Al 
  0.5176637  0.9983837  0.0003106

 Al 
  0.5035951  0.2416997  0.2500804

 Al 
  0.7479964  0.0096196  0.2464680

 Al 
  0.7605960  0.2462316  0.9955658

 Al 
  0.9961883  0.5006559  0.9829179

 Al 
  0.9865724  0.7722068  0.2475793

 Al 
  0.2530555  0.5023241  0.2346010

 Al 
  0.2440585  0.7698963  0.9955225

 Al 
  0.9915363  0.0060888  0.5005297

 Al 
  0.9852346  0.2501312  0.7401527

 Al 
  0.2417863  0.9968962  0.7648285

 Al 
  0.2423593  0.2297337  0.5136862

 Al 
  0.0249183  0.5166403  0.4871095

 Al 
  0.9810282  0.7536867  0.7454396

 Al 
  0.2509529  0.4936946  0.7514319

 Al 
  0.2464853  0.7619412  0.5157096

 Al 
  0.5156589  0.5060232  0.9907529

 Al 
  0.5092186  0.7439483  0.2615254

 Al 
  0.7437924  0.4862334  0.2424472

 Al 
  0.7576122  0.7485818  0.0115947

 Al 
  0.4933246  0.0023848  0.5222365

 Al 
  0.5032362  0.2421638  0.7626986

 Al 
  0.7410425  0.9791211  0.7544057

 Al 
  0.7342310  0.2472464  0.4915846

 Al 
  0.4769863  0.4836543  0.4822855

 Al 
  0.5066643  0.7514467  0.7621615

 Al 
  0.7503317  0.4931365  0.7469445

 Al 
  0.7560789  0.7471053  0.5098027

