32 
charge = 0 
 Al 
  0.0048624  0.0111232  0.0107222

 Al 
  0.0205844  0.2594587  0.2415871

 Al 
  0.2530580  0.0025605  0.2548067

 Al 
  0.2547003  0.2481771  0.9821940

 Al 
  0.5175016  0.9940968  0.0011126

 Al 
  0.5037721  0.2424905  0.2515482

 Al 
  0.7468405  0.0105873  0.2463170

 Al 
  0.7589426  0.2446117  0.9962663

 Al 
  0.9987748  0.5036261  0.9805022

 Al 
  0.9866257  0.7742612  0.2441377

 Al 
  0.2509047  0.5033092  0.2345354

 Al 
  0.2411131  0.7708962  0.9991981

 Al 
  0.9919893  0.0034627  0.4982984

 Al 
  0.9829724  0.2514900  0.7405487

 Al 
  0.2422986  0.9969222  0.7632394

 Al 
  0.2428023  0.2270717  0.5109252

 Al 
  0.0258762  0.5154819  0.4884164

 Al 
  0.9821482  0.7525172  0.7467044

 Al 
  0.2512029  0.4951611  0.7489877

 Al 
  0.2480620  0.7581654  0.5147715

 Al 
  0.5133186  0.5071853  0.9876578

 Al 
  0.5113410  0.7417158  0.2624288

 Al 
  0.7450856  0.4854933  0.2446884

 Al 
  0.7568437  0.7478145  0.0101703

 Al 
  0.4914286  0.0057188  0.5275024

 Al 
  0.5075491  0.2433877  0.7641367

 Al 
  0.7433506  0.9850181  0.7573994

 Al 
  0.7336060  0.2436773  0.4902987

 Al 
  0.4765445  0.4822583  0.4833672

 Al 
  0.5059737  0.7510965  0.7592483

 Al 
  0.7510556  0.4935028  0.7480595

 Al 
  0.7588733  0.7476635  0.5102235

