32 
charge = 0 
 Al 
  0.0045579  0.0112123  0.0107532

 Al 
  0.0205126  0.2589340  0.2414831

 Al 
  0.2534367  0.0029615  0.2554180

 Al 
  0.2538476  0.2485731  0.9816321

 Al 
  0.5173828  0.9933951  0.0012858

 Al 
  0.5037337  0.2426142  0.2517227

 Al 
  0.7466611  0.0107148  0.2463331

 Al 
  0.7586468  0.2443728  0.9963937

 Al 
  0.9992315  0.5040988  0.9801681

 Al 
  0.9867049  0.7745037  0.2436179

 Al 
  0.2505656  0.5035035  0.2344735

 Al 
  0.2406700  0.7709532  0.9998342

 Al 
  0.9920524  0.0030345  0.4979395

 Al 
  0.9826506  0.2516942  0.7406180

 Al 
  0.2423803  0.9969420  0.7629301

 Al 
  0.2428803  0.2267214  0.5104624

 Al 
  0.0259195  0.5152220  0.4886478

 Al 
  0.9824452  0.7523217  0.7469618

 Al 
  0.2512537  0.4954136  0.7485917

 Al 
  0.2483528  0.7575677  0.5145884

 Al 
  0.5128781  0.5073338  0.9871999

 Al 
  0.5116554  0.7414126  0.2625514

 Al 
  0.7453666  0.4854067  0.2450770

 Al 
  0.7566878  0.7476994  0.0098980

 Al 
  0.4911576  0.0061977  0.5282808

 Al 
  0.5082632  0.2436216  0.7643235

 Al 
  0.7437850  0.9860861  0.7578758

 Al 
  0.7335862  0.2431142  0.4901626

 Al 
  0.4765358  0.4820665  0.4836456

 Al 
  0.5058116  0.7509975  0.7587322

 Al 
  0.7511386  0.4935746  0.7481833

 Al 
  0.7592446  0.7477353  0.5102173

