32 
charge = 0 
 Al 
  0.0026063  0.0118014  0.0104871

 Al 
  0.0196092  0.2557930  0.2410153

 Al 
  0.2558908  0.0051656  0.2590033

 Al 
  0.2487030  0.2510668  0.9786793

 Al 
  0.5160710  0.9892666  0.0025333

 Al 
  0.5030716  0.2433221  0.2523130

 Al 
  0.7456401  0.0112445  0.2466759

 Al 
  0.7567546  0.2431835  0.9972675

 Al 
  0.0021026  0.5067806  0.9785889

 Al 
  0.9875798  0.7753317  0.2408272

 Al 
  0.2486263  0.5048228  0.2338374

 Al 
  0.2383063  0.7707341  0.0037721

 Al 
  0.9923964  0.0005025  0.4958950

 Al 
  0.9810653  0.2527771  0.7410042

 Al 
  0.2427999  0.9971289  0.7608745

 Al 
  0.2433271  0.2252376  0.5076915

 Al 
  0.0254666  0.5132469  0.4900970

 Al 
  0.9848708  0.7512054  0.7487476

 Al 
  0.2516274  0.4969915  0.7462539

 Al 
  0.2502871  0.7541508  0.5132927

 Al 
  0.5099154  0.5079786  0.9848324

 Al 
  0.5133434  0.7399782  0.2631528

 Al 
  0.7474655  0.4850861  0.2474952

 Al 
  0.7555740  0.7470608  0.0080318

 Al 
  0.4898285  0.0085961  0.5323944

 Al 
  0.5124882  0.2452230  0.7651936

 Al 
  0.7466969  0.9929100  0.7605898

 Al 
  0.7339996  0.2399213  0.4898272

 Al 
  0.4768700  0.4811235  0.4858918

 Al 
  0.5046136  0.7502129  0.7554255

 Al 
  0.7514418  0.4940944  0.7485409

 Al 
  0.7609586  0.7480645  0.5097693

