32 
charge = 0 
 Al 
  0.0036075  0.0114957  0.0107210

 Al 
  0.0201624  0.2573610  0.2412158

 Al 
  0.2546223  0.0041087  0.2572311

 Al 
  0.2512846  0.2497933  0.9800728

 Al 
  0.5168593  0.9913160  0.0018650

 Al 
  0.5034949  0.2429731  0.2521162

 Al 
  0.7461400  0.0110341  0.2464507

 Al 
  0.7577261  0.2437218  0.9968034

 Al 
  0.0006386  0.5054762  0.9792894

 Al 
  0.9870588  0.7750520  0.2421514

 Al 
  0.2495768  0.5041310  0.2342112

 Al 
  0.2394238  0.7709581  0.0017784

 Al 
  0.9922306  0.0017611  0.4968925

 Al 
  0.9817831  0.2522672  0.7408185

 Al 
  0.2426080  0.9970224  0.7619412

 Al 
  0.2431130  0.2258428  0.5090726

 Al 
  0.0258477  0.5143273  0.4893594

 Al 
  0.9835194  0.7517474  0.7478058

 Al 
  0.2514244  0.4961895  0.7474160

 Al 
  0.2492785  0.7558252  0.5139857

 Al 
  0.5114697  0.5077075  0.9859351

 Al 
  0.5125415  0.7406156  0.2628781

 Al 
  0.7463269  0.4852025  0.2462663

 Al 
  0.7561705  0.7473702  0.0090156

 Al 
  0.4904275  0.0074996  0.5304527

 Al 
  0.5103930  0.2443802  0.7648074

 Al 
  0.7451747  0.9894127  0.7592632

 Al 
  0.7336778  0.2414794  0.4898916

 Al 
  0.4766187  0.4815517  0.4846456

 Al 
  0.5052584  0.7506423  0.7571271

 Al 
  0.7513316  0.4938147  0.7484431

 Al 
  0.7602087  0.7479209  0.5100775

