32 
charge = 0 
 Al 
  0.0039305  0.0113992  0.0107532

 Al 
  0.0203022  0.2578845  0.2412975

 Al 
  0.2542189  0.0037362  0.2566309

 Al 
  0.2521397  0.2493812  0.9805727

 Al 
  0.5170623  0.9920053  0.0016620

 Al 
  0.5035951  0.2428556  0.2520061

 Al 
  0.7463108  0.0109388  0.2463999

 Al 
  0.7580392  0.2439260  0.9966611

 Al 
  0.0001634  0.5050245  0.9795629

 Al 
  0.9869214  0.7748985  0.2426241

 Al 
  0.2499022  0.5039144  0.2343114

 Al 
  0.2398248  0.7709829  0.0011249

 Al 
  0.9921737  0.0021831  0.4972365

 Al 
  0.9820553  0.2520828  0.7407529

 Al 
  0.2425350  0.9969927  0.7622803

 Al 
  0.2430375  0.2261064  0.5095354

 Al 
  0.0259059  0.5146453  0.4891194

 Al 
  0.9831295  0.7519368  0.7475125

 Al 
  0.2513650  0.4959284  0.7478058

 Al 
  0.2489604  0.7563970  0.5141961

 Al 
  0.5119549  0.5075949  0.9863398

 Al 
  0.5122556  0.7408631  0.2627754

 Al 
  0.7459866  0.4852606  0.2458653

 Al 
  0.7563512  0.7474778  0.0093201

 Al 
  0.4906564  0.0070888  0.5297547

 Al 
  0.5096864  0.2441179  0.7646577

 Al 
  0.7446970  0.9882840  0.7588077

 Al 
  0.7336221  0.2420152  0.4899584

 Al 
  0.4765729  0.4817138  0.4842842

 Al 
  0.5054539  0.7507698  0.7576716

 Al 
  0.7512772  0.4937305  0.7483738

 Al 
  0.7599116  0.7478640  0.5101443

