32 
charge = 0 
 Al 
  0.0032795  0.0115947  0.0106666

 Al 
  0.0200002  0.2568375  0.2411403

 Al 
  0.2550356  0.0044713  0.2578263

 Al 
  0.2504257  0.2502116  0.9795914

 Al 
  0.5166279  0.9906304  0.0020779

 Al 
  0.5033736  0.2430907  0.2522041

 Al 
  0.7459717  0.0111158  0.2465138

 Al 
  0.7574080  0.2435288  0.9969506

 Al 
  0.0011212  0.5059193  0.9790357

 Al 
  0.9872135  0.7751757  0.2416947

 Al 
  0.2492562  0.5043537  0.2340986

 Al 
  0.2390364  0.7709074  0.0024380

 Al 
  0.9922875  0.0013403  0.4965546

 Al 
  0.9815269  0.2524442  0.7408829

 Al 
  0.2426761  0.9970558  0.7615935

 Al 
  0.2431872  0.2256101  0.5086110

 Al 
  0.0257549  0.5139882  0.4896020

 Al 
  0.9839389  0.7515630  0.7481090

 Al 
  0.2514888  0.4964531  0.7470274

 Al 
  0.2496052  0.7552596  0.5137654

 Al 
  0.5109685  0.5078090  0.9855490

 Al 
  0.5128174  0.7403854  0.2629746

 Al 
  0.7466858  0.4851542  0.2466710

 Al 
  0.7559811  0.7472662  0.0086988

 Al 
  0.4902121  0.0078882  0.5311247

 Al 
  0.5110960  0.2446513  0.7649460

 Al 
  0.7456673  0.9905599  0.7597124

 Al 
  0.7337595  0.2409522  0.4898470

 Al 
  0.4766843  0.4813994  0.4850329

 Al 
  0.5050542  0.7505074  0.7565702

 Al 
  0.7513774  0.4939025  0.7484939

 Al 
  0.7604822  0.7479729  0.5099933

