32 
charge = 0 
 Al 
  0.9986783  0.0130365  0.0077125

 Al 
  0.0158705  0.2501559  0.2410066

 Al 
  0.2612841  0.0079612  0.2649262

 Al 
  0.2390538  0.2561222  0.9747290

 Al 
  0.5106789  0.9819873  0.0055616

 Al 
  0.4999802  0.2446933  0.2513230

 Al 
  0.7439137  0.0108608  0.2483986

 Al 
  0.7527338  0.2424954  0.9997537

 Al 
  0.0077558  0.5108076  0.9776038

 Al 
  0.9907529  0.7739406  0.2372469

 Al 
  0.2453715  0.5077744  0.2317497

 Al 
  0.2355106  0.7683531  0.0112965

 Al 
  0.9930622  0.9959742  0.4928184

 Al 
  0.9798500  0.2541396  0.7413804

 Al 
  0.2430078  0.9976808  0.7566408

 Al 
  0.2437206  0.2257586  0.5029070

 Al 
  0.0213220  0.5075665  0.4929570

 Al 
  0.9921464  0.7498168  0.7527981

 Al 
  0.2526954  0.5001893  0.7420548

 Al 
  0.2546619  0.7485236  0.5096678

 Al 
  0.5027969  0.5082508  0.9822991

 Al 
  0.5156391  0.7388372  0.2638186

 Al 
  0.7532474  0.4854624  0.2523947

 Al 
  0.7526991  0.7459965  0.0034590

 Al 
  0.4889968  0.0107977  0.5376108

 Al 
  0.5195114  0.2490582  0.7659324

 Al 
  0.7534280  0.0066766  0.7648545

 Al 
  0.7372444  0.2348708  0.4913383

 Al 
  0.4793339  0.4801445  0.4924942

 Al 
  0.5016447  0.7481486  0.7483404

 Al 
  0.7512759  0.4956339  0.7475063

 Al 
  0.7621355  0.7482835  0.5074204

