32 
charge = 0 
 Al 
  0.0001287  0.0125848  0.0090788

 Al 
  0.0175301  0.2521694  0.2408594

 Al 
  0.2591988  0.0071853  0.2629140

 Al 
  0.2425771  0.2542349  0.9759665

 Al 
  0.5131058  0.9845738  0.0043834

 Al 
  0.5013675  0.2441550  0.2519925

 Al 
  0.7445250  0.0112346  0.2476140

 Al 
  0.7542758  0.2424731  0.9986721

 Al 
  0.0056878  0.5095032  0.9776632

 Al 
  0.9893990  0.7748985  0.2383038

 Al 
  0.2465138  0.5066507  0.2326011

 Al 
  0.2362569  0.7694594  0.0085615

 Al 
  0.9927875  0.9975991  0.4938085

 Al 
  0.9800109  0.2537300  0.7413160

 Al 
  0.2430449  0.9974519  0.7582001

 Al 
  0.2436736  0.2250272  0.5045617

 Al 
  0.0233342  0.5099500  0.4919002

 Al 
  0.9891008  0.7501745  0.7512574

 Al 
  0.2522499  0.4989840  0.7435672

 Al 
  0.2529689  0.7504727  0.5112111

 Al 
  0.5056482  0.5082644  0.9829216

 Al 
  0.5149201  0.7390513  0.2636342

 Al 
  0.7508564  0.4851703  0.2505433

 Al 
  0.7538637  0.7463777  0.0053005

 Al 
  0.4890241  0.0103324  0.5360700

 Al 
  0.5171390  0.2475373  0.7657764

 Al 
  0.7507896  0.0015903  0.7634337

 Al 
  0.7356851  0.2365712  0.4904807

 Al 
  0.4781422  0.4804057  0.4897493

 Al 
  0.5028068  0.7489716  0.7510544

 Al 
  0.7514207  0.4949582  0.7481325

 Al 
  0.7619685  0.7482550  0.5084662

