32 
charge = 0 
 Al 
  0.9979679  0.0132456  0.0068870

 Al 
  0.0149287  0.2491820  0.2411539

 Al 
  0.2623558  0.0082187  0.2658396

 Al 
  0.2373224  0.2570603  0.9741993

 Al 
  0.5092792  0.9807460  0.0061581

 Al 
  0.4991968  0.2449928  0.2508651

 Al 
  0.7436167  0.0105638  0.2488478

 Al 
  0.7519380  0.2426439  0.0003874

 Al 
  0.0087545  0.5113744  0.9777078

 Al 
  0.9914856  0.7732687  0.2368360

 Al 
  0.2448233  0.5083337  0.2313165

 Al 
  0.2352767  0.7677281  0.0126231

 Al 
  0.9932256  0.9951834  0.4923964

 Al 
  0.9799082  0.2543141  0.7413730

 Al 
  0.2429310  0.9978083  0.7558797

 Al 
  0.2436921  0.2263725  0.5021447

 Al 
  0.0201129  0.5062534  0.4934830

 Al 
  0.9938072  0.7497228  0.7535629

 Al 
  0.2529318  0.5007982  0.7413148

 Al 
  0.2555232  0.7476041  0.5087892

 Al 
  0.5012759  0.5082075  0.9821321

 Al 
  0.5159448  0.7388025  0.2638842

 Al 
  0.7545480  0.4856789  0.2533352

 Al 
  0.7520791  0.7458071  0.0024702

 Al 
  0.4891156  0.0108868  0.5382122

 Al 
  0.5205708  0.2498552  0.7659633

 Al 
  0.7547956  0.0091654  0.7654881

 Al 
  0.7381739  0.2340986  0.4918816

 Al 
  0.4800629  0.4800480  0.4939793

 Al 
  0.5010519  0.7477204  0.7469556

 Al 
  0.7511819  0.4960324  0.7470930

 Al 
  0.7621207  0.7482773  0.5068412

