32 
charge = 0 
 Al 
  0.0008514  0.0123546  0.0096097

 Al 
  0.0182355  0.2531966  0.2408544

 Al 
  0.2582038  0.0066828  0.2618373

 Al 
  0.2443406  0.2533055  0.9766707

 Al 
  0.5141206  0.9859005  0.0038191

 Al 
  0.5019541  0.2439087  0.2521967

 Al 
  0.7448381  0.0113163  0.2472873

 Al 
  0.7550134  0.2425870  0.9982154

 Al 
  0.0046470  0.5087768  0.9778241

 Al 
  0.9887988  0.7751832  0.2389411

 Al 
  0.2471041  0.5061024  0.2329971

 Al 
  0.2367544  0.7699198  0.0071816

 Al 
  0.9926687  0.9984233  0.4943654

 Al 
  0.9802188  0.2534912  0.7412492

 Al 
  0.2430115  0.9973504  0.7589810

 Al 
  0.2436030  0.2249022  0.5054354

 Al 
  0.0241250  0.5110081  0.4913754

 Al 
  0.9877407  0.7504245  0.7505049

 Al 
  0.2520506  0.4983974  0.7443320

 Al 
  0.2521583  0.7514925  0.5118806

 Al 
  0.5069625  0.5082273  0.9833672

 Al 
  0.5145104  0.7392406  0.2635179

 Al 
  0.7497810  0.4850923  0.2496461

 Al 
  0.7543983  0.7465707  0.0061457

 Al 
  0.4891614  0.0099562  0.5351431

 Al 
  0.5158594  0.2468269  0.7656515

 Al 
  0.7495446  0.9990557  0.7626615

 Al 
  0.7350663  0.2374845  0.4901812

 Al 
  0.4776756  0.4805740  0.4885154

 Al 
  0.5033600  0.7493552  0.7523588

 Al 
  0.7514616  0.4946748  0.7483404

 Al 
  0.7617791  0.7482204  0.5089142

