32 
charge = 0 
 Al 
  0.9969420  0.0135204  0.0055034

 Al 
  0.0134090  0.2477835  0.2414695

 Al 
  0.2639634  0.0084154  0.2670647

 Al 
  0.2348114  0.2584278  0.9735261

 Al 
  0.5069860  0.9789887  0.0070294

 Al 
  0.4979419  0.2454866  0.2500446

 Al 
  0.7431872  0.0099809  0.2495792

 Al 
  0.7507302  0.2430498  0.0014616

 Al 
  0.0101604  0.5120996  0.9780283

 Al 
  0.9926204  0.7720373  0.2363732

 Al 
  0.2440374  0.5091406  0.2306953

 Al 
  0.2351208  0.7667393  0.0145154

 Al 
  0.9935152  0.9940411  0.4918680

 Al 
  0.9801829  0.2545518  0.7413086

 Al 
  0.2427367  0.9980187  0.7547881

 Al 
  0.2435808  0.2276001  0.5011089

 Al 
  0.0180845  0.5041693  0.4942565

 Al 
  0.9964185  0.7497030  0.7546619

 Al 
  0.2532870  0.5016992  0.7402443

 Al 
  0.2567967  0.7463096  0.5073425

 Al 
  0.4989134  0.5081085  0.9820727

 Al 
  0.5163309  0.7388298  0.2639486

 Al 
  0.7565937  0.4860935  0.2547436

 Al 
  0.7511225  0.7455262  0.0009232

 Al 
  0.4894671  0.0108497  0.5388904

 Al 
  0.5219506  0.2510705  0.7659485

 Al 
  0.7568610  0.0127296  0.7663173

 Al 
  0.7397270  0.2330615  0.4928122

 Al 
  0.4813215  0.4799391  0.4962898

 Al 
  0.5001782  0.7470707  0.7448889

 Al 
  0.7510259  0.4967130  0.7463653

 Al 
  0.7619932  0.7482451  0.5059304

