32 
charge = 0 
 Al 
  0.9946475  0.0138471  0.0013440

 Al 
  0.0090330  0.2445498  0.2428296

 Al 
  0.2679026  0.0077608  0.2693320

 Al 
  0.2290604  0.2615465  0.9725088

 Al 
  0.5001733  0.9752079  0.0089674

 Al 
  0.4944458  0.2471400  0.2473046

 Al 
  0.7421910  0.0077063  0.2516719

 Al 
  0.7475645  0.2452044  0.0050084

 Al 
  0.0129659  0.5132419  0.9797522

 Al 
  0.9955138  0.7677120  0.2360700

 Al 
  0.2422306  0.5108336  0.2295542

 Al 
  0.2358905  0.7641367  0.0186080

 Al 
  0.9946104  0.9913569  0.4911502

 Al 
  0.9820591  0.2551606  0.7408557

 Al 
  0.2418049  0.9987117  0.7523303

 Al 
  0.2429187  0.2324353  0.4991411

 Al 
  0.0118534  0.4983417  0.4961400

 Al 
  0.0035865  0.7503812  0.7569972

 Al 
  0.2540555  0.5038575  0.7377395

 Al 
  0.2597310  0.7434743  0.5028179

 Al 
  0.4925313  0.5077410  0.9830330

 Al 
  0.5169299  0.7391837  0.2639065

 Al 
  0.7622271  0.4876788  0.2582459

 Al 
  0.7486139  0.7448146  0.9966487

 Al 
  0.4913692  0.0099240  0.5393322

 Al 
  0.5241040  0.2541644  0.7655859

 Al 
  0.7619549  0.0204346  0.7676699

 Al 
  0.7444644  0.2311655  0.4956648

 Al 
  0.4855688  0.4798104  0.5024256

 Al 
  0.4981870  0.7454173  0.7398285

 Al 
  0.7506361  0.4990038  0.7440003

 Al 
  0.7611752  0.7480546  0.5035370

