32 
charge = 0 
 Al 
  0.9942057  0.0138062  0.0002896

 Al 
  0.0079328  0.2438654  0.2432701

 Al 
  0.2687416  0.0073350  0.2696686

 Al 
  0.2279120  0.2621566  0.9724395

 Al 
  0.4984085  0.9745174  0.0093176

 Al 
  0.4935944  0.2476437  0.2465447

 Al 
  0.7419831  0.0069984  0.2521930

 Al 
  0.7468133  0.2459730  0.0060269

 Al 
  0.0133818  0.5133508  0.9803450

 Al 
  0.9961475  0.7664633  0.2361962

 Al 
  0.2418519  0.5110972  0.2294527

 Al 
  0.2363385  0.7635575  0.0193542

 Al 
  0.9949705  0.9907802  0.4911267

 Al 
  0.9827843  0.2553401  0.7406948

 Al 
  0.2415004  0.9989184  0.7518353

 Al 
  0.2426922  0.2339278  0.4988392

 Al 
  0.0102111  0.4969135  0.4965608

 Al 
  0.0053277  0.7507029  0.7573957

 Al 
  0.2541693  0.5043104  0.7372123

 Al 
  0.2602953  0.7429162  0.5015606

 Al 
  0.4909955  0.5076407  0.9835120

 Al 
  0.5169868  0.7392938  0.2638471

 Al 
  0.7635909  0.4881751  0.2590206

 Al 
  0.7480348  0.7446513  0.9955893

 Al 
  0.4920400  0.0095515  0.5391416

 Al 
  0.5242587  0.2548562  0.7654312

 Al 
  0.7630414  0.0218281  0.7677961

 Al 
  0.7457094  0.2309094  0.4963962

 Al 
  0.4868150  0.4798067  0.5038463

 Al 
  0.4978083  0.7450423  0.7387357

 Al 
  0.7505643  0.4996782  0.7433617

 Al 
  0.7608955  0.7479927  0.5029974

