32 
charge = 0 
 Al 
  0.9933531  0.0134560  0.9977724

 Al 
  0.0052473  0.2423469  0.2445151

 Al 
  0.2705114  0.0058611  0.2701636

 Al 
  0.2256200  0.2633409  0.9725929

 Al 
  0.4940250  0.9732810  0.0099092

 Al 
  0.4915561  0.2490916  0.2445881

 Al 
  0.7415338  0.0050208  0.2534429

 Al 
  0.7450238  0.2482575  0.0087607

 Al 
  0.0138372  0.5133521  0.9820454

 Al 
  0.9975026  0.7631541  0.2368360

 Al 
  0.2410363  0.5114017  0.2296149

 Al 
  0.2378471  0.7623026  0.0206834

 Al 
  0.9960410  0.9894758  0.4913160

 Al 
  0.9850218  0.2558933  0.7402480

 Al 
  0.2406737  0.9995037  0.7507883

 Al 
  0.2420858  0.2380229  0.4983751

 Al 
  0.0060913  0.4935288  0.4975311

 Al 
  0.0094810  0.7517165  0.7580157

 Al 
  0.2542646  0.5052671  0.7360774

 Al 
  0.2613373  0.7417554  0.4982278

 Al 
  0.4873484  0.5073981  0.9850762

 Al 
  0.5169905  0.7395253  0.2636144

 Al 
  0.7668172  0.4895859  0.2607321

 Al 
  0.7467056  0.7442664  0.9930053

 Al 
  0.4940003  0.0084637  0.5381751

 Al 
  0.5239716  0.2563871  0.7649683

 Al 
  0.7653198  0.0243045  0.7677504

 Al 
  0.7488317  0.2306495  0.4981560

 Al 
  0.4902393  0.4798451  0.5070640

 Al 
  0.4971066  0.7441934  0.7363744

 Al 
  0.7504591  0.5015296  0.7417702

 Al 
  0.7601208  0.7478207  0.5018106

