32 
charge = 0 
 Al 
  0.9938209  0.0137110  0.9992587

 Al 
  0.0068450  0.2432268  0.2437454

 Al 
  0.2695065  0.0068128  0.2699223

 Al 
  0.2268947  0.2626900  0.9724444

 Al 
  0.4966462  0.9739382  0.0096047

 Al 
  0.4927640  0.2481894  0.2457700

 Al 
  0.7417925  0.0062423  0.2527028

 Al 
  0.7460806  0.2468257  0.0070900

 Al 
  0.0136664  0.5133941  0.9809910

 Al 
  0.9967291  0.7651688  0.2363980

 Al 
  0.2415041  0.5112841  0.2294428

 Al 
  0.2368794  0.7630229  0.0199780

 Al 
  0.9953678  0.9902369  0.4911613

 Al 
  0.9836085  0.2555418  0.7405215

 Al 
  0.2411787  0.9991399  0.7513861

 Al 
  0.2424521  0.2355081  0.4986065

 Al 
  0.0085615  0.4955237  0.4969618

 Al 
  0.0070256  0.7510754  0.7577088

 Al 
  0.2542411  0.5047225  0.7367271

 Al 
  0.2607767  0.7424125  0.5002599

 Al 
  0.4895030  0.5075417  0.9840763

 Al 
  0.5170115  0.7393978  0.2637679

 Al 
  0.7649163  0.4887110  0.2597446

 Al 
  0.7474816  0.7444928  0.9945448

 Al 
  0.4927776  0.0091394  0.5388384

 Al 
  0.5242587  0.2555047  0.7652579

 Al 
  0.7640302  0.0229914  0.7678395

 Al 
  0.7469581  0.2307398  0.4971152

 Al 
  0.4881305  0.4798141  0.5051953

 Al 
  0.4974853  0.7446884  0.7377259

 Al 
  0.7505074  0.5003898  0.7427219

 Al 
  0.7605960  0.7479258  0.5024937

