32 
charge = 0 
 Al 
  0.9927974  0.0125340  0.9951129

 Al 
  0.0021657  0.2408000  0.2462415

 Al 
  0.2719890  0.0034305  0.2702416

 Al 
  0.2239963  0.2641070  0.9734048

 Al 
  0.4889263  0.9727575  0.0100478

 Al 
  0.4892382  0.2512289  0.2421947

 Al 
  0.7411032  0.0022821  0.2548178

 Al 
  0.7430597  0.2516571  0.0123348

 Al 
  0.0132073  0.5129375  0.9844141

 Al 
  0.9986696  0.7589018  0.2381850

 Al 
  0.2402963  0.5109970  0.2307027

 Al 
  0.2402765  0.7611430  0.0212613

 Al 
  0.9976994  0.9880946  0.4919633

 Al 
  0.9884573  0.2568054  0.7397047

 Al 
  0.2396602  0.0003725  0.7497995

 Al 
  0.2414126  0.2434917  0.4982476

 Al 
  0.0012004  0.4899448  0.4985830

 Al 
  0.0140401  0.7532177  0.7580355

 Al 
  0.2539936  0.5060999  0.7350515

 Al 
  0.2618534  0.7407269  0.4938666

 Al 
  0.4833313  0.5071345  0.9875922

 Al 
  0.5167653  0.7396169  0.2631875

 Al 
  0.7702663  0.4916130  0.2623360

 Al 
  0.7453431  0.7438555  0.9900092

 Al 
  0.4968219  0.0069588  0.5361170

 Al 
  0.5223801  0.2578189  0.7643174

 Al 
  0.7671687  0.0254356  0.7670536

 Al 
  0.7525580  0.2310492  0.5000582

 Al 
  0.4949569  0.4800022  0.5101777

 Al 
  0.4967155  0.7433382  0.7342632

 Al 
  0.7505260  0.5040481  0.7399572

 Al 
  0.7591221  0.7475991  0.5007227

