32 
charge = 0 
 Al 
  0.9927219  0.0110551  0.9930325

 Al 
  0.9992426  0.2394424  0.2481795

 Al 
  0.2727216  0.0004430  0.2699334

 Al 
  0.2236412  0.2641503  0.9749579

 Al 
  0.4841369  0.9733738  0.0095156

 Al 
  0.4869586  0.2538278  0.2398334

 Al 
  0.7407715  0.9991758  0.2560220

 Al 
  0.7413234  0.2557225  0.0161056

 Al 
  0.0112123  0.5121751  0.9870576

 Al 
  0.9993379  0.7544280  0.2401366

 Al 
  0.2397963  0.5096357  0.2328882

 Al 
  0.2431971  0.7602433  0.0207453

 Al 
  0.9998329  0.9868200  0.4930003

 Al 
  0.9926093  0.2579897  0.7392629

 Al 
  0.2388112  0.0014814  0.7489555

 Al 
  0.2409831  0.2494072  0.4984172

 Al 
  0.9964569  0.4870464  0.4995545

 Al 
  0.0180857  0.7548475  0.7572571

 Al 
  0.2533154  0.5066420  0.7343770

 Al 
  0.2615601  0.7399757  0.4891491

 Al 
  0.4796916  0.5069019  0.9907109

 Al 
  0.5163086  0.7393879  0.2625934

 Al 
  0.7731622  0.4940325  0.2633966

 Al 
  0.7442367  0.7435127  0.9871058

 Al 
  0.5000780  0.0053438  0.5330937

 Al 
  0.5194904  0.2587681  0.7636318

 Al 
  0.7680115  0.0247352  0.7657109

 Al 
  0.7562249  0.2322076  0.5016633

 Al 
  0.5003403  0.4803289  0.5123459

 Al 
  0.4967304  0.7426823  0.7329464

 Al 
  0.7508675  0.5068313  0.7384065

 Al 
  0.7581432  0.7473875  0.5000149

