32 
charge = 0 
 Al 
  0.9930919  0.0090726  0.9917504

 Al 
  0.9965905  0.2382172  0.2502450

 Al 
  0.2726264  0.9971623  0.2693778

 Al 
  0.2245483  0.2634758  0.9773068

 Al 
  0.4799280  0.9752611  0.0082694

 Al 
  0.4846456  0.2567930  0.2376751

 Al 
  0.7405463  0.9958146  0.2569997

 Al 
  0.7398829  0.2602879  0.0197849

 Al 
  0.0078882  0.5111641  0.9898520

 Al 
  0.9995644  0.7499344  0.2425833

 Al 
  0.2394894  0.5072831  0.2361888

 Al 
  0.2462811  0.7594030  0.0191884

 Al 
  0.0024330  0.9856257  0.4943208

 Al 
  0.9972378  0.2593374  0.7390748

 Al 
  0.2383867  0.0028724  0.7481078

 Al 
  0.2409806  0.2554948  0.4987080

 Al 
  0.9921291  0.4850502  0.5004529

 Al 
  0.0214853  0.7563586  0.7557200

 Al 
  0.2523031  0.5069700  0.7340577

 Al 
  0.2605106  0.7393990  0.4843213

 Al 
  0.4765210  0.5067051  0.9942429

 Al 
  0.5156317  0.7387654  0.2618299

 Al 
  0.7753069  0.4967848  0.2638062

 Al 
  0.7434087  0.7432763  0.9843622

 Al 
  0.5036273  0.0037214  0.5291990

 Al 
  0.5154807  0.2591790  0.7629746

 Al 
  0.7678110  0.0224605  0.7637976

 Al 
  0.7596716  0.2340392  0.5029169

 Al 
  0.5061891  0.4808698  0.5134102

 Al 
  0.4969989  0.7422801  0.7324093

 Al 
  0.7515296  0.5096765  0.7373583

 Al 
  0.7572719  0.7472675  0.4997067

