32 
charge = 0 
 Al 
  0.9934211  0.0079377  0.9914608

 Al 
  0.9954408  0.2376553  0.2512759

 Al 
  0.2722489  0.9955361  0.2690387

 Al 
  0.2254282  0.2628942  0.9787696

 Al 
  0.4781694  0.9766955  0.0073882

 Al 
  0.4834835  0.2583313  0.2367568

 Al 
  0.7404844  0.9941166  0.2573796

 Al 
  0.7393037  0.2626491  0.0214544

 Al 
  0.0058203  0.5105911  0.9912430

 Al 
  0.9995557  0.7477922  0.2439236

 Al 
  0.2393830  0.5057745  0.2381937

 Al 
  0.2477377  0.7589315  0.0180697

 Al 
  0.0038661  0.9850787  0.4950411

 Al 
  0.9995966  0.2600032  0.7391255

 Al 
  0.2384139  0.0036669  0.7476449

 Al 
  0.2411873  0.2584662  0.4988441

 Al 
  0.9902678  0.4844649  0.5008700

 Al 
  0.0228801  0.7569823  0.7547102

 Al 
  0.2517177  0.5070764  0.7340330

 Al 
  0.2597495  0.7391478  0.4820182

 Al 
  0.4751794  0.5066247  0.9960596

 Al 
  0.5152195  0.7383026  0.2613893

 Al 
  0.7760012  0.4982290  0.2637345

 Al 
  0.7431055  0.7432157  0.9831048

 Al 
  0.5054317  0.0029417  0.5270024

 Al 
  0.5131664  0.2591753  0.7626665

 Al 
  0.7673370  0.0208566  0.7626764

 Al 
  0.7612160  0.2351406  0.5034058

 Al 
  0.5091394  0.4812237  0.5134919

 Al 
  0.4971685  0.7421996  0.7324155

 Al 
  0.7519813  0.5110155  0.7371071

 Al 
  0.7569019  0.7472823  0.4997055

