32 
charge = 0 
 Al 
  0.9933023  0.0083238  0.9915314

 Al 
  0.9958071  0.2378385  0.2509344

 Al 
  0.2723986  0.9960720  0.2691550

 Al 
  0.2251064  0.2631045  0.9782622

 Al 
  0.4787251  0.9761819  0.0076989

 Al 
  0.4838696  0.2578189  0.2370477

 Al 
  0.7405005  0.9946797  0.2572620

 Al 
  0.7394857  0.2618620  0.0209160

 Al 
  0.0065331  0.5107854  0.9907826

 Al 
  0.9995656  0.7484939  0.2434719

 Al 
  0.2394164  0.5062992  0.2375043

 Al 
  0.2472650  0.7590961  0.0184657

 Al 
  0.0033810  0.9852557  0.4947985

 Al 
  0.9988132  0.2597854  0.7390958

 Al 
  0.2383842  0.0033959  0.7478033

 Al 
  0.2411019  0.2574873  0.4988008

 Al 
  0.9908594  0.4846270  0.5007339

 Al 
  0.0224407  0.7567868  0.7550616

 Al 
  0.2519170  0.5070442  0.7340317

 Al 
  0.2600168  0.7392295  0.4827707

 Al 
  0.4756064  0.5066494  0.9954557

 Al 
  0.5153619  0.7384672  0.2615403

 Al 
  0.7758019  0.4977464  0.2637790

 Al 
  0.7431984  0.7432305  0.9835132

 Al 
  0.5048314  0.0031979  0.5277486

 Al 
  0.5139548  0.2591926  0.7627679

 Al 
  0.7675214  0.0214197  0.7630600

 Al 
  0.7607185  0.2347644  0.5032536

 Al 
  0.5081617  0.4810999  0.5134981

 Al 
  0.4971115  0.7422170  0.7323944

 Al 
  0.7518217  0.5105799  0.7371677

 Al 
  0.7570195  0.7472699  0.4996943

