32 
charge = 0 
 Al 
  0.9947948  0.0042684  0.9920066

 Al 
  0.9930536  0.2361764  0.2540852

 Al 
  0.2698839  0.9913556  0.2678518

 Al 
  0.2292387  0.2604228  0.9840812

 Al 
  0.4747673  0.9827273  0.0039429

 Al 
  0.4801433  0.2625971  0.2350626

 Al 
  0.7405772  0.9894089  0.2579761

 Al 
  0.7381714  0.2693778  0.0251658

 Al 
  0.9988194  0.5087174  0.9950770

 Al 
  0.9993231  0.7423816  0.2479716

 Al 
  0.2390859  0.5003973  0.2449829

 Al 
  0.2510891  0.7570380  0.0137629

 Al 
  0.0083214  0.9838102  0.4971635

 Al 
  0.0061272  0.2615972  0.7400104

 Al 
  0.2396602  0.0063066  0.7459965

 Al 
  0.2427578  0.2663754  0.4990285

 Al 
  0.9865415  0.4845701  0.5019677

 Al 
  0.0256522  0.7580182  0.7510693

 Al 
  0.2499443  0.5073016  0.7344971

 Al 
  0.2569242  0.7384214  0.4763923

 Al 
  0.4724222  0.5064997  0.0011423

 Al 
  0.5137431  0.7364351  0.2598856

 Al 
  0.7761930  0.5024467  0.2624239

 Al 
  0.7425994  0.7433630  0.9801173

 Al 
  0.5104747  0.0008836  0.5199297

 Al 
  0.5056891  0.2584117  0.7617927

 Al 
  0.7647344  0.0149473  0.7589798

 Al 
  0.7646787  0.2386899  0.5043760

 Al 
  0.5172244  0.4825813  0.5120056

 Al 
  0.4975224  0.7425251  0.7333016

 Al 
  0.7537214  0.5141614  0.7376986

 Al 
  0.7561173  0.7477848  0.5002512

