32 
charge = 0 
 Al 
  0.9956995  0.0021793  0.9931278

 Al 
  0.9925016  0.2354698  0.2553475

 Al 
  0.2678927  0.9897183  0.2670462

 Al 
  0.2317571  0.2587409  0.9874994

 Al 
  0.4741671  0.9869722  0.0016942

 Al 
  0.4785122  0.2644535  0.2349673

 Al 
  0.7408606  0.9872308  0.2578994

 Al 
  0.7378855  0.2726016  0.0262103

 Al 
  0.9949111  0.5075949  0.9968925

 Al 
  0.9992315  0.7402431  0.2500223

 Al 
  0.2388273  0.4971672  0.2488676

 Al 
  0.2520754  0.7556049  0.0109772

 Al 
  0.0107148  0.9834439  0.4981820

 Al 
  0.0091221  0.2620848  0.7410165

 Al 
  0.2411193  0.0078400  0.7448901

 Al 
  0.2442614  0.2698493  0.4989369

 Al 
  0.9858250  0.4858386  0.5024751

 Al 
  0.0262970  0.7579922  0.7488590

 Al 
  0.2490904  0.5074353  0.7351158

 Al 
  0.2552448  0.7379721  0.4744196

 Al 
  0.4717737  0.5065207  0.0035073

 Al 
  0.5127679  0.7351950  0.2589550

 Al 
  0.7749814  0.5045307  0.2610997

 Al 
  0.7425251  0.7437095  0.9791099

 Al 
  0.5128137  0.9999703  0.5158829

 Al 
  0.5015197  0.2576197  0.7612730

 Al 
  0.7627568  0.0113225  0.7568685

 Al 
  0.7656923  0.2405859  0.5046730

 Al 
  0.5209000  0.4834983  0.5102062

 Al 
  0.4975038  0.7430833  0.7342013

 Al 
  0.7548661  0.5151441  0.7389201

 Al 
  0.7559007  0.7483887  0.5008564

