32 
charge = 0 
 Al 
  0.9978070  0.9974853  0.9973034

 Al 
  0.9930944  0.2341542  0.2572113

 Al 
  0.2621355  0.9879350  0.2644844

 Al 
  0.2373472  0.2546310  0.9960262

 Al 
  0.4758415  0.9978862  0.9964309

 Al 
  0.4760680  0.2666403  0.2371541

 Al 
  0.7422640  0.9837199  0.2564217

 Al 
  0.7377593  0.2779305  0.0259121

 Al 
  0.9874288  0.5048191  0.0002116

 Al 
  0.9995384  0.7378484  0.2536199

 Al 
  0.2376479  0.4903161  0.2567695

 Al 
  0.2520135  0.7516026  0.0042473

 Al 
  0.0154980  0.9837013  0.4997661

 Al 
  0.0139201  0.2620885  0.7445968

 Al 
  0.2460633  0.0110316  0.7419497

 Al 
  0.2491535  0.2748144  0.4984741

 Al 
  0.9873756  0.4913928  0.5033365

 Al 
  0.0257920  0.7565814  0.7439124

 Al 
  0.2478132  0.5078697  0.7375613

 Al 
  0.2518774  0.7367593  0.4733590

 Al 
  0.4725274  0.5067410  0.0073041

 Al 
  0.5100045  0.7323969  0.2566259

 Al 
  0.7690201  0.5081667  0.2572261

 Al 
  0.7426167  0.7453839  0.9788129

 Al 
  0.5164150  0.9985471  0.5066309

 Al 
  0.4927714  0.2554861  0.7596876

 Al 
  0.7576283  0.0029689  0.7522944

 Al 
  0.7655661  0.2443320  0.5049701

 Al 
  0.5267771  0.4859462  0.5043933

 Al 
  0.4968059  0.7452354  0.7368608

 Al 
  0.7575219  0.5151403  0.7436204

 Al 
  0.7559044  0.7504480  0.5028254

