32 
charge = 0 
 Al 
  0.9991349  0.9943877  0.0008861

 Al 
  0.9945188  0.2335837  0.2577521

 Al 
  0.2577174  0.9879140  0.2620068

 Al 
  0.2404646  0.2519195  0.0020135

 Al 
  0.4788649  0.0054304  0.9932033

 Al 
  0.4758527  0.2663841  0.2402926

 Al 
  0.7437986  0.9824006  0.2543686

 Al 
  0.7378063  0.2797077  0.0239035

 Al 
  0.9840701  0.5028315  0.0019727

 Al 
  0.0001658  0.7378719  0.2550468

 Al 
  0.2363088  0.4867544  0.2607470

 Al 
  0.2505854  0.7487451  0.9997154

 Al 
  0.0180201  0.9847879  0.5002549

 Al 
  0.0156292  0.2613769  0.7478058

 Al 
  0.2501980  0.0125835  0.7397530

 Al 
  0.2532573  0.2758193  0.4984258

 Al 
  0.9901738  0.4964816  0.5036941

 Al 
  0.0242488  0.7549082  0.7409423

 Al 
  0.2475843  0.5082595  0.7399968

 Al 
  0.2503478  0.7358522  0.4750693

 Al 
  0.4744901  0.5069217  0.0085813

 Al 
  0.5075999  0.7309663  0.2549082

 Al 
  0.7631454  0.5097532  0.2545159

 Al 
  0.7427145  0.7472081  0.9801507

 Al 
  0.5173964  0.9980756  0.5003614

 Al 
  0.4877667  0.2542882  0.7581382

 Al 
  0.7541013  0.9976412  0.7495359

 Al 
  0.7639981  0.2464197  0.5049998

 Al 
  0.5289268  0.4879610  0.4999220

 Al 
  0.4959037  0.7471165  0.7389003

 Al 
  0.7590243  0.5135612  0.7477006

 Al 
  0.7561853  0.7520902  0.5044342

