32 
charge = 0 
 Al 
  0.9993169  0.9939446  0.0014269

 Al 
  0.9947688  0.2335280  0.2577929

 Al 
  0.2570640  0.9879672  0.2615947

 Al 
  0.2408544  0.2515408  0.0028786

 Al 
  0.4794082  0.0064972  0.9927763

 Al 
  0.4759356  0.2662331  0.2408383

 Al 
  0.7440560  0.9822719  0.2540035

 Al 
  0.7378100  0.2798339  0.0235075

 Al 
  0.9837137  0.5025444  0.0022041

 Al 
  0.0002760  0.7379622  0.2551829

 Al 
  0.2360824  0.4863385  0.2612086

 Al 
  0.2503106  0.7483417  0.9990743

 Al 
  0.0183308  0.9850082  0.5002933

 Al 
  0.0157802  0.2612346  0.7483095

 Al 
  0.2508242  0.0127494  0.7394263

 Al 
  0.2538822  0.2758094  0.4984629

 Al 
  0.9906527  0.4972625  0.5037337

 Al 
  0.0239580  0.7546347  0.7405524

 Al 
  0.2475954  0.5083177  0.7403990

 Al 
  0.2501918  0.7357222  0.4754554

 Al 
  0.4748540  0.5069427  0.0086803

 Al 
  0.5072100  0.7308128  0.2546520

 Al 
  0.7622135  0.5099339  0.2541409

 Al 
  0.7427268  0.7475113  0.9804416

 Al 
  0.5174410  0.9980385  0.4994505

 Al 
  0.4871170  0.2541557  0.7578771

 Al 
  0.7536038  0.9969098  0.7491622

 Al 
  0.7637023  0.2466957  0.5049973

 Al 
  0.5291248  0.4882865  0.4992822

 Al 
  0.4957502  0.7474011  0.7392023

 Al 
  0.7592062  0.5132432  0.7483182

 Al 
  0.7562398  0.7523279  0.5046718

