32 
charge = 0 
 Al 
  0.0007710  0.9901688  0.0061606

 Al 
  0.9972105  0.2334290  0.2578622

 Al 
  0.2513848  0.9888842  0.2573796

 Al 
  0.2435028  0.2484543  0.0103200

 Al 
  0.4852792  0.0153272  0.9896169

 Al 
  0.4780778  0.2636392  0.2464705

 Al 
  0.7466660  0.9817781  0.2500990

 Al 
  0.7377494  0.2793463  0.0189557

 Al 
  0.9821457  0.5001361  0.0040778

 Al 
  0.0013155  0.7394844  0.2556297

 Al 
  0.2338585  0.4839587  0.2638161

 Al 
  0.2473454  0.7450584  0.9936971

 Al 
  0.0203567  0.9876974  0.5003775

 Al 
  0.0160871  0.2595602  0.7530543

 Al 
  0.2564155  0.0133830  0.7365279

 Al 
  0.2594723  0.2739827  0.4994815

 Al 
  0.9952960  0.5042189  0.5039763

 Al 
  0.0206475  0.7520445  0.7377110

 Al 
  0.2481944  0.5087397  0.7444644

 Al 
  0.2497277  0.7347000  0.4802200

 Al 
  0.4788030  0.5070083  0.0086147

 Al 
  0.5031941  0.7303116  0.2523043

 Al 
  0.7535184  0.5110440  0.2511744

 Al 
  0.7427999  0.7505408  0.9840305

 Al 
  0.5167219  0.9980162  0.4913767

 Al 
  0.4823783  0.2537003  0.7551111

 Al 
  0.7495013  0.9911118  0.7461636

 Al 
  0.7606158  0.2488763  0.5049082

 Al 
  0.5296198  0.4916650  0.4941253

 Al 
  0.4942231  0.7499072  0.7418705

 Al 
  0.7602903  0.5095936  0.7537498

 Al 
  0.7568289  0.7542349  0.5066729

