32 
charge = 0 
 Al 
  0.9998416  0.9926353  0.0030555

 Al 
  0.9955596  0.2334117  0.2578684

 Al 
  0.2551099  0.9881949  0.2602804

 Al 
  0.2419162  0.2504393  0.0054490

 Al 
  0.4811829  0.0096258  0.9915747

 Al 
  0.4763700  0.2656057  0.2425932

 Al 
  0.7448753  0.9819761  0.2528155

 Al 
  0.7378112  0.2799973  0.0221734

 Al 
  0.9828560  0.5016967  0.0028699

 Al 
  0.0006213  0.7383409  0.2554861

 Al 
  0.2353658  0.4852594  0.2623979

 Al 
  0.2494072  0.7471672  0.9971845

 Al 
  0.0191661  0.9857668  0.5003676

 Al 
  0.0160908  0.2607507  0.7498639

 Al 
  0.2527202  0.0131429  0.7384449

 Al 
  0.2557757  0.2755445  0.4986610

 Al 
  0.9921613  0.4996312  0.5038364

 Al 
  0.0229852  0.7537845  0.7394584

 Al 
  0.2476994  0.5084860  0.7416724

 Al 
  0.2498428  0.7353423  0.4768081

 Al 
  0.4760507  0.5069947  0.0088498

 Al 
  0.5059688  0.7304589  0.2538711

 Al 
  0.7593399  0.5104042  0.2530630

 Al 
  0.7427578  0.7484741  0.9814527

 Al 
  0.5174236  0.9979692  0.4967192

 Al 
  0.4852953  0.2538451  0.7570318

 Al 
  0.7521472  0.9948010  0.7480843

 Al 
  0.7627395  0.2474853  0.5049812

 Al 
  0.5295480  0.4893223  0.4974147

 Al 
  0.4952638  0.7482587  0.7401106

 Al 
  0.7596889  0.5121677  0.7501782

 Al 
  0.7564192  0.7530209  0.5053822

