32 
charge = 0 
 Al 
  0.0011584  0.9890525  0.0075442

 Al 
  0.9980026  0.2335738  0.2578177

 Al 
  0.2496956  0.9893050  0.2558401

 Al 
  0.2440213  0.2476004  0.0125452

 Al 
  0.4875340  0.0178048  0.9888966

 Al 
  0.4793315  0.2623521  0.2485025

 Al 
  0.7475991  0.9818672  0.2486313

 Al 
  0.7376887  0.2785382  0.0171415

 Al 
  0.9822917  0.4994604  0.0046322

 Al 
  0.0016262  0.7401824  0.2554985

 Al 
  0.2331295  0.4837496  0.2640327

 Al 
  0.2462551  0.7441599  0.9921551

 Al 
  0.0206945  0.9888458  0.5003379

 Al 
  0.0158000  0.2588647  0.7546297

 Al 
  0.2581333  0.0132011  0.7356294

 Al 
  0.2611801  0.2727340  0.5000953

 Al 
  0.9968133  0.5063066  0.5040196

 Al 
  0.0193109  0.7512054  0.7370996

 Al 
  0.2485669  0.5087966  0.7459383

 Al 
  0.2499740  0.7344723  0.4821890

 Al 
  0.4802931  0.5069551  0.0082323

 Al 
  0.5016744  0.7305529  0.2515346

 Al 
  0.7507141  0.5112210  0.2503836

 Al 
  0.7428110  0.7515965  0.9855416

 Al 
  0.5160598  0.9981189  0.4888174

 Al 
  0.4813413  0.2539033  0.7540629

 Al 
  0.7483590  0.9896008  0.7453344

 Al 
  0.7595305  0.2494765  0.5048537

 Al 
  0.5292758  0.4929694  0.4927986

 Al 
  0.4937008  0.7506584  0.7426922

 Al 
  0.7603869  0.5081654  0.7553735

 Al 
  0.7570454  0.7547102  0.5071989

