32 
charge = 0 
 Al 
  0.0016831  0.9874115  0.0094785

 Al 
  0.9991758  0.2340305  0.2577459

 Al 
  0.2472328  0.9900574  0.2532127

 Al 
  0.2445201  0.2464012  0.0158668

 Al 
  0.4915029  0.0213046  0.9880959

 Al 
  0.4819563  0.2598510  0.2519046

 Al 
  0.7491547  0.9822806  0.2461202

 Al 
  0.7375650  0.2765296  0.0139176

 Al 
  0.9832199  0.4985248  0.0055183

 Al 
  0.0020469  0.7414348  0.2550542

 Al 
  0.2320541  0.4840144  0.2637171

 Al 
  0.2444446  0.7429199  0.9899399

 Al 
  0.0208777  0.9909967  0.5002500

 Al 
  0.0149584  0.2575615  0.7571556

 Al 
  0.2607247  0.0124301  0.7342706

 Al 
  0.2636899  0.2700696  0.5013514

 Al 
  0.9991387  0.5093127  0.5040555

 Al 
  0.0168667  0.7499208  0.7365106

 Al 
  0.2493231  0.5087409  0.7484543

 Al 
  0.2508304  0.7342830  0.4857272

 Al 
  0.4828573  0.5067633  0.0072496

 Al 
  0.4989592  0.7314452  0.2502760

 Al 
  0.7463739  0.5113200  0.2492760

 Al 
  0.7428147  0.7533105  0.9882976

 Al 
  0.5145475  0.9983738  0.4847594

 Al 
  0.4802869  0.2546730  0.7522326

 Al 
  0.7467638  0.9876417  0.7441500

 Al 
  0.7577781  0.2503453  0.5047337

 Al 
  0.5281545  0.4953381  0.4911551

 Al 
  0.4928704  0.7517660  0.7439619

 Al 
  0.7602285  0.5056854  0.7577447

 Al 
  0.7574006  0.7552634  0.5078189

