32 
charge = 0 
 Al 
  0.0013873  0.9883620  0.0083795

 Al 
  0.9984976  0.2337236  0.2577855

 Al 
  0.2486548  0.9896008  0.2547943

 Al 
  0.2442713  0.2470868  0.0139350

 Al 
  0.4890934  0.0192998  0.9885167

 Al 
  0.4803042  0.2613992  0.2498663

 Al 
  0.7482241  0.9819935  0.2476313

 Al 
  0.7376405  0.2778315  0.0158779

 Al 
  0.9825652  0.4990570  0.0049899

 Al 
  0.0018093  0.7406750  0.2553512

 Al 
  0.2326729  0.4837669  0.2640043

 Al 
  0.2455262  0.7436241  0.9912145

 Al 
  0.0208245  0.9896725  0.5003044

 Al 
  0.0155153  0.2583647  0.7556569

 Al 
  0.2592137  0.0129635  0.7350626

 Al 
  0.2622383  0.2717489  0.5005668

 Al 
  0.9977798  0.5075863  0.5040394

 Al 
  0.0183642  0.7506720  0.7367977

 Al 
  0.2488515  0.5087991  0.7469383

 Al 
  0.2502512  0.7343659  0.4835714

 Al 
  0.4813103  0.5068945  0.0078870

 Al 
  0.5006163  0.7308351  0.2510284

 Al 
  0.7489221  0.5112890  0.2499109

 Al 
  0.7428147  0.7522920  0.9866133

 Al 
  0.5155128  0.9982105  0.4871628

 Al 
  0.4808165  0.2541471  0.7533402

 Al 
  0.7476734  0.9887308  0.7448319

 Al 
  0.7588176  0.2498428  0.5048092

 Al 
  0.5289095  0.4938877  0.4920536

 Al 
  0.4933605  0.7511237  0.7432157

 Al 
  0.7603720  0.5071841  0.7563747

 Al 
  0.7571890  0.7549688  0.5074885

