32 
charge = 0 
 Al 
  0.0022462  0.9852210  0.0114796

 Al 
  0.0005916  0.2355960  0.2577991

 Al 
  0.2440820  0.9914014  0.2484642

 Al 
  0.2445968  0.2449111  0.0205101

 Al 
  0.4990446  0.0256188  0.9878459

 Al 
  0.4881503  0.2545728  0.2577806

 Al 
  0.7517969  0.9838597  0.2417170

 Al 
  0.7374350  0.2710472  0.0077311

 Al 
  0.9867160  0.4974506  0.0071506

 Al 
  0.0024553  0.7437181  0.2538340

 Al 
  0.2309155  0.4861616  0.2613707

 Al 
  0.2414435  0.7415153  0.9871553

 Al 
  0.0200658  0.9955052  0.5001436

 Al 
  0.0125068  0.2547040  0.7612890

 Al 
  0.2644671  0.0095565  0.7324415

 Al 
  0.2668581  0.2638681  0.5039639

 Al 
  0.0024875  0.5129053  0.5039911

 Al 
  0.0118360  0.7481263  0.7368682

 Al 
  0.2509158  0.5080145  0.7530110

 Al 
  0.2536335  0.7346914  0.4925882

 Al 
  0.4875699  0.5060801  0.0046124

 Al 
  0.4934867  0.7346134  0.2479877

 Al 
  0.7398693  0.5109079  0.2477427

 Al 
  0.7427491  0.7560257  0.9937181

 Al 
  0.5107557  0.9989357  0.4781075

 Al 
  0.4805851  0.2573264  0.7488812

 Al 
  0.7448666  0.9859487  0.7425622

 Al 
  0.7549527  0.2515544  0.5044466

 Al 
  0.5244282  0.5002289  0.4900401

 Al 
  0.4916477  0.7532622  0.7459903

 Al 
  0.7589228  0.5011893  0.7608707

 Al 
  0.7579216  0.7554824  0.5079031

