32 
charge = 0 
 Al 
  0.0022796  0.9850416  0.0115687

 Al 
  0.0006819  0.2358349  0.2578276

 Al 
  0.2438407  0.9915388  0.2479456

 Al 
  0.2445671  0.2447923  0.0209148

 Al 
  0.4998948  0.0259443  0.9879065

 Al 
  0.4889411  0.2539478  0.2583956

 Al 
  0.7520692  0.9841047  0.2412603

 Al 
  0.7374425  0.2703047  0.0070281

 Al 
  0.9872222  0.4973776  0.0073449

 Al 
  0.0024739  0.7439619  0.2536817

 Al 
  0.2308747  0.4865155  0.2609957

 Al 
  0.2411440  0.7414262  0.9869474

 Al 
  0.0198889  0.9960485  0.5001423

 Al 
  0.0121739  0.2543389  0.7617123

 Al 
  0.2648124  0.0091245  0.7322991

 Al 
  0.2670858  0.2630959  0.5042523

 Al 
  0.0027919  0.5131454  0.5039738

 Al 
  0.0112296  0.7479753  0.7370229

 Al 
  0.2510940  0.5078734  0.7535085

 Al 
  0.2540307  0.7348064  0.4933753

 Al 
  0.4880984  0.5059774  0.0042646

 Al 
  0.4928320  0.7350874  0.2477216

 Al 
  0.7392555  0.5108163  0.2475942

 Al 
  0.7427343  0.7562831  0.9943382

 Al 
  0.5102656  0.9989901  0.4774219

 Al 
  0.4807967  0.2577075  0.7485199

 Al 
  0.7447292  0.9859079  0.7424224

 Al 
  0.7546681  0.2516633  0.5044107

 Al 
  0.5238800  0.5008217  0.4900574

 Al 
  0.4915450  0.7533884  0.7462019

 Al 
  0.7586964  0.5007042  0.7611282

 Al 
  0.7579612  0.7554490  0.5078177

