32 
charge = 0 
 Al 
  0.0021113  0.9858373  0.0110452

 Al 
  0.0002364  0.2349599  0.2577434

 Al 
  0.2449384  0.9909707  0.2500371

 Al 
  0.2446550  0.2453195  0.0191599

 Al 
  0.4964989  0.0244592  0.9877692

 Al 
  0.4858930  0.2564118  0.2558797

 Al 
  0.7509504  0.9832100  0.2431402

 Al 
  0.7374474  0.2731214  0.0098300

 Al 
  0.9853237  0.4977241  0.0065875

 Al 
  0.0023687  0.7429682  0.2542770

 Al 
  0.2311507  0.4852322  0.2623719

 Al 
  0.2423902  0.7418643  0.9879041

 Al 
  0.0204940  0.9939211  0.5001621

 Al 
  0.0134399  0.2557398  0.7599748

 Al 
  0.2633496  0.0107222  0.7329476

 Al 
  0.2660178  0.2660982  0.5030828

 Al 
  0.0014962  0.5119870  0.5040320

 Al 
  0.0136008  0.7486399  0.7365427

 Al 
  0.2503725  0.5083597  0.7515012

 Al 
  0.2525345  0.7344352  0.4902517

 Al 
  0.4859908  0.5063561  0.0055975

 Al 
  0.4953950  0.7333350  0.2487674

 Al 
  0.7418395  0.5111282  0.2482080

 Al 
  0.7427850  0.7551940  0.9918705

 Al 
  0.5121529  0.9987525  0.4802312

 Al 
  0.4801681  0.2562782  0.7499876

 Al 
  0.7453629  0.9862482  0.7430226

 Al 
  0.7558413  0.2511980  0.5045505

 Al 
  0.5259146  0.4985087  0.4901527

 Al 
  0.4920004  0.7528340  0.7453406

 Al 
  0.7595045  0.5026694  0.7599921

 Al 
  0.7577781  0.7555171  0.5080404

