32 
charge = 0 
 Al 
  0.0019912  0.9863126  0.0106232

 Al 
  0.9999307  0.2346010  0.2577298

 Al 
  0.2456190  0.9906700  0.2510928

 Al 
  0.2446537  0.2456388  0.0181476

 Al 
  0.4948146  0.0235323  0.9878038

 Al 
  0.4844921  0.2576011  0.2545765

 Al 
  0.7503651  0.9828461  0.2441191

 Al 
  0.7374771  0.2743713  0.0112111

 Al 
  0.9845144  0.4979518  0.0062249

 Al 
  0.0022833  0.7424595  0.2545567

 Al 
  0.2313945  0.4847260  0.2629251

 Al 
  0.2430536  0.7421638  0.9885055

 Al 
  0.0206933  0.9929088  0.5001856

 Al 
  0.0140005  0.2563809  0.7590627

 Al 
  0.2625328  0.0113856  0.7333461

 Al 
  0.2653322  0.2675016  0.5024925

 Al 
  0.0007661  0.5112173  0.5040481

 Al 
  0.0147282  0.7490310  0.7364413

 Al 
  0.2500136  0.5085305  0.7504864

 Al 
  0.2518898  0.7343325  0.4887184

 Al 
  0.4849413  0.5065133  0.0061990

 Al 
  0.4966215  0.7326061  0.2492748

 Al 
  0.7432639  0.5112284  0.2485397

 Al 
  0.7427999  0.7545938  0.9906564

 Al 
  0.5130142  0.9986238  0.4817002

 Al 
  0.4800666  0.2556656  0.7507351

 Al 
  0.7457688  0.9865947  0.7433654

 Al 
  0.7564638  0.2509356  0.5046161

 Al 
  0.5267697  0.4974110  0.4903693

 Al 
  0.4922702  0.7525098  0.7448951

 Al 
  0.7598102  0.5036718  0.7593164

 Al 
  0.7576617  0.7554824  0.5080367

