32 
charge = 0 
 Al 
  0.0023464  0.9841394  0.0112433

 Al 
  0.0008564  0.2382382  0.2582137

 Al 
  0.2427207  0.9924608  0.2439421

 Al 
  0.2442738  0.2441364  0.0232786

 Al 
  0.5064935  0.0274467  0.9889473

 Al 
  0.4958319  0.2489505  0.2628162

 Al 
  0.7539986  0.9866195  0.2380451

 Al 
  0.7378112  0.2635921  0.0014257

 Al 
  0.9918507  0.4971004  0.0089934

 Al 
  0.0024726  0.7457799  0.2524801

 Al 
  0.2313252  0.4900302  0.2574229

 Al 
  0.2390686  0.7412133  0.9861046

 Al 
  0.0179075  0.0005817  0.5002500

 Al 
  0.0092124  0.2510519  0.7647889

 Al 
  0.2670796  0.0049899  0.7317175

 Al 
  0.2678741  0.2565900  0.5062893

 Al 
  0.0047621  0.5138966  0.5037473

 Al 
  0.0061037  0.7471462  0.7390587

 Al 
  0.2523489  0.5062373  0.7572930

 Al 
  0.2576023  0.7362767  0.4996770

 Al 
  0.4923209  0.5049985  0.0012499

 Al 
  0.4873793  0.7396787  0.2454136

 Al 
  0.7351666  0.5097916  0.2464965

 Al 
  0.7425486  0.7578560  0.9992290

 Al 
  0.5060344  0.9992005  0.4724519

 Al 
  0.4837520  0.2611381  0.7458839

 Al 
  0.7441216  0.9866343  0.7415301

 Al 
  0.7526323  0.2523526  0.5041161

 Al 
  0.5185956  0.5058413  0.4911056

 Al 
  0.4911316  0.7541137  0.7478491

 Al 
  0.7563598  0.4971016  0.7625662

 Al 
  0.7580182  0.7548166  0.5063722

