32 
charge = 0 
 Al 
  0.0023464  0.9845899  0.0116665

 Al 
  0.0008638  0.2366343  0.2579402

 Al 
  0.2432516  0.9919249  0.2464074

 Al 
  0.2444570  0.2444891  0.0219865

 Al 
  0.5024269  0.0267388  0.9881825

 Al 
  0.4914200  0.2520605  0.2601703

 Al 
  0.7528489  0.9849314  0.2399498

 Al 
  0.7375080  0.2679385  0.0049131

 Al 
  0.9888545  0.4972105  0.0079439

 Al 
  0.0025036  0.7446772  0.2532239

 Al 
  0.2308747  0.4876974  0.2597631

 Al 
  0.2402926  0.7412418  0.9864561

 Al 
  0.0192602  0.9977167  0.5001572

 Al 
  0.0111183  0.2531830  0.7629325

 Al 
  0.2657641  0.0077038  0.7319601

 Al 
  0.2676031  0.2607099  0.5050827

 Al 
  0.0036236  0.5136726  0.5039045

 Al 
  0.0093584  0.7475868  0.7376219

 Al 
  0.2516088  0.5073672  0.7549762

 Al 
  0.2553030  0.7352421  0.4957440

 Al 
  0.4896862  0.5056433  0.0031731

 Al 
  0.4908247  0.7366504  0.2468962

 Al 
  0.7375526  0.5104908  0.2471660

 Al 
  0.7426786  0.7569811  0.9961970

 Al 
  0.5087322  0.9991275  0.4754406

 Al 
  0.4816432  0.2589278  0.7474704

 Al 
  0.7444025  0.9859623  0.7420425

 Al 
  0.7538538  0.2519603  0.5043005

 Al 
  0.5220769  0.5026521  0.4902690

 Al 
  0.4912987  0.7537214  0.7468281

 Al 
  0.7579254  0.4992872  0.7617952

 Al 
  0.7580392  0.7552844  0.5074353

