32 
charge = 0 
 Al 
  0.0023093  0.9840763  0.0108670

 Al 
  0.0007438  0.2389708  0.2583474

 Al 
  0.2426600  0.9926340  0.2430041

 Al 
  0.2442243  0.2440461  0.0236152

 Al 
  0.5080194  0.0275110  0.9893483

 Al 
  0.4976622  0.2477588  0.2637283

 Al 
  0.7543958  0.9874041  0.2374066

 Al 
  0.7380192  0.2617494  0.0000644

 Al 
  0.9931055  0.4971103  0.0094216

 Al 
  0.0024380  0.7461809  0.2522029

 Al 
  0.2316705  0.4910710  0.2564168

 Al 
  0.2386577  0.7412999  0.9861331

 Al 
  0.0172714  0.0017351  0.5003119

 Al 
  0.0084191  0.2501374  0.7654609

 Al 
  0.2675078  0.0038142  0.7317447

 Al 
  0.2677664  0.2549292  0.5066878

 Al 
  0.0051359  0.5137629  0.5036731

 Al 
  0.0047708  0.7470398  0.7397765

 Al 
  0.2525816  0.5056829  0.7581555

 Al 
  0.2585441  0.7367940  0.5012202

 Al 
  0.4933592  0.5047164  0.0004678

 Al 
  0.4859945  0.7410116  0.2447750

 Al 
  0.7343733  0.5094649  0.2462452

 Al 
  0.7424830  0.7580862  0.0003911

 Al 
  0.5049366  0.9991523  0.4713950

 Al 
  0.4848238  0.2620477  0.7453245

 Al 
  0.7440968  0.9870996  0.7413643

 Al 
  0.7521979  0.2524739  0.5040468

 Al 
  0.5170623  0.5071444  0.4915895

 Al 
  0.4911712  0.7542139  0.7482538

 Al 
  0.7556532  0.4963121  0.7627580

 Al 
  0.7579452  0.7545678  0.5057992

