32 
charge = 0 
 Al 
  0.0020828  0.9843188  0.0090503

 Al 
  0.0000631  0.2414286  0.2587855

 Al 
  0.2429335  0.9930251  0.2404250

 Al 
  0.2442317  0.2439446  0.0239951

 Al 
  0.5120378  0.0269417  0.9908049

 Al 
  0.5031941  0.2445485  0.2658061

 Al 
  0.7553438  0.9901106  0.2360155

 Al 
  0.7390241  0.2560690  0.9962106

 Al 
  0.9968714  0.4972774  0.0106653

 Al 
  0.0022870  0.7472204  0.2514900

 Al 
  0.2332867  0.4944532  0.2533080

 Al 
  0.2377419  0.7418841  0.9867841

 Al 
  0.0151205  0.0051186  0.5005841

 Al 
  0.0060269  0.2472378  0.7671972

 Al 
  0.2684471  0.0001671  0.7322954

 Al 
  0.2667083  0.2500718  0.5075281

 Al 
  0.0059960  0.5126615  0.5034318

 Al 
  0.0007611  0.7469457  0.7423259

 Al 
  0.2529961  0.5036941  0.7604413

 Al 
  0.2612296  0.7386615  0.5056346

 Al 
  0.4963480  0.5038030  0.9982006

 Al 
  0.4819700  0.7452663  0.2426848

 Al 
  0.7325454  0.5083672  0.2455732

 Al 
  0.7422405  0.7583164  0.0035766

 Al 
  0.5017264  0.9986597  0.4688617

 Al 
  0.4886862  0.2646936  0.7439644

 Al 
  0.7442750  0.9890773  0.7409881

 Al 
  0.7511076  0.2527338  0.5038760

 Al 
  0.5121504  0.5110180  0.4934521

 Al 
  0.4917417  0.7543154  0.7494753

 Al 
  0.7533625  0.4943171  0.7629486

 Al 
  0.7574637  0.7536545  0.5036186

