32 
charge = 0 
 Al 
  0.0018526  0.9848448  0.0073189

 Al 
  0.9993676  0.2432404  0.2590750

 Al 
  0.2434100  0.9932120  0.2389350

 Al 
  0.2444149  0.2440189  0.0237377

 Al 
  0.5141082  0.0259294  0.9919187

 Al 
  0.5067707  0.2428494  0.2665499

 Al 
  0.7557807  0.9921576  0.2355737

 Al 
  0.7400537  0.2523316  0.9939038

 Al 
  0.9992451  0.4974556  0.0114066

 Al 
  0.0021521  0.7477786  0.2511485

 Al 
  0.2348337  0.4968232  0.2512598

 Al 
  0.2374202  0.7425226  0.9876417

 Al 
  0.0135402  0.0072224  0.5008292

 Al 
  0.0044948  0.2452403  0.7681006

 Al 
  0.2687788  0.9977749  0.7330652

 Al 
  0.2654423  0.2470534  0.5077707

 Al 
  0.0063734  0.5114091  0.5032820

 Al 
  0.9981412  0.7470509  0.7442688

 Al 
  0.2530060  0.5021224  0.7616739

 Al 
  0.2627419  0.7401280  0.5083214

 Al 
  0.4981795  0.5031496  0.9968417

 Al 
  0.4795171  0.7481746  0.2411403

 Al 
  0.7317633  0.5075578  0.2452069

 Al 
  0.7420412  0.7580763  0.0053809

 Al 
  0.4997550  0.9979951  0.4678197

 Al 
  0.4916638  0.2662653  0.7433246

 Al 
  0.7445708  0.9907839  0.7408160

 Al 
  0.7505767  0.2528476  0.5038105

 Al 
  0.5087533  0.5134622  0.4949433

 Al 
  0.4925449  0.7542300  0.7503131

 Al 
  0.7517846  0.4933407  0.7627716

 Al 
  0.7569192  0.7529516  0.5018477

