32 
charge = 0 
 Al 
  0.0019145  0.9846864  0.0077867

 Al 
  0.9995570  0.2427763  0.2590045

 Al 
  0.2432738  0.9931674  0.2392889

 Al 
  0.2443542  0.2439892  0.0238392

 Al 
  0.5136429  0.0262289  0.9916341

 Al 
  0.5058933  0.2432355  0.2664150

 Al 
  0.7556841  0.9916316  0.2356468

 Al 
  0.7397678  0.2532536  0.9944582

 Al 
  0.9986684  0.4974085  0.0112296

 Al 
  0.0021892  0.7476474  0.2512227

 Al 
  0.2344117  0.4962279  0.2517648

 Al 
  0.2374783  0.7423457  0.9873991

 Al 
  0.0139436  0.0067113  0.5007636

 Al 
  0.0048698  0.2457415  0.7678952

 Al 
  0.2687181  0.9983627  0.7328424

 Al 
  0.2657975  0.2477860  0.5077335

 Al 
  0.0062918  0.5117568  0.5033179

 Al 
  0.9987897  0.7470125  0.7437701

 Al 
  0.2530246  0.5025321  0.7613893

 Al 
  0.2623930  0.7397468  0.5076729

 Al 
  0.4977365  0.5033154  0.9971660

 Al 
  0.4801074  0.7474494  0.2415375

 Al 
  0.7319279  0.5077645  0.2452911

 Al 
  0.7420932  0.7581654  0.0049564

 Al 
  0.5002302  0.9981870  0.4680263

 Al 
  0.4908977  0.2658928  0.7434657

 Al 
  0.7444854  0.9903346  0.7408557

 Al 
  0.7506943  0.2528216  0.5038228

 Al 
  0.5096047  0.5128682  0.4945572

 Al 
  0.4923110  0.7542622  0.7501002

 Al 
  0.7521781  0.4935572  0.7628385

 Al 
  0.7570727  0.7531310  0.5023093

