32 
charge = 0 
 Al 
  0.0020308  0.9844228  0.0086543

 Al 
  0.9999047  0.2418705  0.2588597

 Al 
  0.2430350  0.9930746  0.2400339

 Al 
  0.2442627  0.2439520  0.0239679

 Al 
  0.5126058  0.0267351  0.9910759

 Al 
  0.5041025  0.2440857  0.2660438

 Al 
  0.7554663  0.9906069  0.2358670

 Al 
  0.7392530  0.2551235  0.9956116

 Al 
  0.9974803  0.4973194  0.0108584

 Al 
  0.0022561  0.7473689  0.2513935

 Al 
  0.2336382  0.4950423  0.2527907

 Al 
  0.2376380  0.7420264  0.9869697

 Al 
  0.0147344  0.0056594  0.5006411

 Al 
  0.0056359  0.2467403  0.7674434

 Al 
  0.2685523  0.9995607  0.7324563

 Al 
  0.2664311  0.2492958  0.5076135

 Al 
  0.0061037  0.5123843  0.5033922

 Al 
  0.0001002  0.7469605  0.7427974

 Al 
  0.2530197  0.5033179  0.7607730

 Al 
  0.2616356  0.7390142  0.5063289

 Al 
  0.4968207  0.5036434  0.9978454

 Al 
  0.4813351  0.7459940  0.2423098

 Al 
  0.7323189  0.5081692  0.2454742

 Al 
  0.7421935  0.7582855  0.0040543

 Al 
  0.5012165  0.9985199  0.4685486

 Al 
  0.4894065  0.2651057  0.7437850

 Al 
  0.7443382  0.9894795  0.7409410

 Al 
  0.7509591  0.2527660  0.5038550

 Al 
  0.5113051  0.5116442  0.4938109

 Al 
  0.4919101  0.7543055  0.7496819

 Al 
  0.7529677  0.4940448  0.7629263

 Al 
  0.7573449  0.7534837  0.5031966

