32 
charge = 0 
 Al 
  0.0017858  0.9850205  0.0068289

 Al 
  0.9991708  0.2437107  0.2591419

 Al 
  0.2435548  0.9932565  0.2385946

 Al 
  0.2444867  0.2440560  0.0236139

 Al 
  0.5145364  0.0255990  0.9922083

 Al 
  0.5076358  0.2424929  0.2666477

 Al 
  0.7558685  0.9926934  0.2355279

 Al 
  0.7403594  0.2514207  0.9933667

 Al 
  0.9998082  0.4975026  0.0115762

 Al 
  0.0021150  0.7479036  0.2510816

 Al 
  0.2352780  0.4974184  0.2507611

 Al 
  0.2373781  0.7427108  0.9879016

 Al 
  0.0131305  0.0077199  0.5008972

 Al 
  0.0041273  0.2447416  0.7682924

 Al 
  0.2688246  0.9971957  0.7333090

 Al 
  0.2650648  0.2463381  0.5077905

 Al 
  0.0064465  0.5110391  0.5032486

 Al 
  0.9974976  0.7470954  0.7447750

 Al 
  0.2529751  0.5017029  0.7619437

 Al 
  0.2630699  0.7405166  0.5089550

 Al 
  0.4986127  0.5029801  0.9965299

 Al 
  0.4789441  0.7488961  0.2407344

 Al 
  0.7316197  0.5073474  0.2451277

 Al 
  0.7419868  0.7579699  0.0057868

 Al 
  0.4992934  0.9977848  0.4676489

 Al 
  0.4924410  0.2666205  0.7431959

 Al 
  0.7446624  0.9912467  0.7407789

 Al 
  0.7504703  0.2528724  0.5038030

 Al 
  0.5079031  0.5140451  0.4953369

 Al 
  0.4928023  0.7541916  0.7505284

 Al 
  0.7513947  0.4931439  0.7626912

 Al 
  0.7567571  0.7527697  0.5013737

