32 
charge = 0 
 Al 
  0.0009752  0.9876330  0.0009430

 Al 
  0.9968789  0.2487179  0.2595763

 Al 
  0.2452478  0.9938407  0.2358658

 Al 
  0.2458628  0.2448022  0.0211772

 Al 
  0.5166910  0.0206859  0.9951661

 Al 
  0.5153173  0.2405871  0.2657133

 Al 
  0.7564762  0.9983491  0.2364388

 Al 
  0.7445126  0.2431390  0.9889473

 Al 
  0.0045431  0.4979357  0.0128162

 Al 
  0.0015903  0.7489790  0.2508465

 Al 
  0.2409707  0.5031756  0.2462428

 Al 
  0.2378199  0.7451129  0.9912022

 Al 
  0.0087434  0.0118831  0.5017177

 Al 
  0.0009170  0.2398879  0.7694347

 Al 
  0.2684991  0.9921341  0.7369016

 Al 
  0.2602928  0.2401849  0.5071853

 Al 
  0.0067905  0.5063301  0.5030877

 Al 
  0.9913272  0.7478677  0.7500186

 Al 
  0.2519306  0.4970150  0.7638075

 Al 
  0.2648644  0.7448047  0.5143768

 Al 
  0.5022957  0.5011522  0.9942132

 Al 
  0.4743503  0.7556779  0.2362791

 Al 
  0.7311692  0.5051136  0.2446315

 Al 
  0.7414447  0.7559688  0.0088708

 Al 
  0.4954693  0.9947985  0.4680882

 Al 
  0.5004901  0.2690857  0.7424274

 Al 
  0.7458542  0.9963306  0.7404250

 Al 
  0.7499691  0.2531174  0.5039602

 Al 
  0.4995842  0.5189768  0.4994518

 Al 
  0.4966450  0.7534615  0.7528934

 Al 
  0.7478813  0.4922640  0.7611084

 Al 
  0.7545963  0.7509863  0.4961871

