32 
charge = 0 
 Al 
  0.0016460  0.9854203  0.0057881

 Al 
  0.9987538  0.2446686  0.2592681

 Al 
  0.2438666  0.9933444  0.2379499

 Al 
  0.2446636  0.2441513  0.0232971

 Al 
  0.5152814  0.0248478  0.9927937

 Al 
  0.5093213  0.2418655  0.2667405

 Al 
  0.7560245  0.9937850  0.2355106

 Al 
  0.7410301  0.2496386  0.9923407

 Al 
  0.0008898  0.4975979  0.0118917

 Al 
  0.0020321  0.7481412  0.2509715

 Al 
  0.2362346  0.4986040  0.2497847

 Al 
  0.2373410  0.7431179  0.9884684

 Al 
  0.0122977  0.0086778  0.5010420

 Al 
  0.0034132  0.2437454  0.7686352

 Al 
  0.2688741  0.9960707  0.7338585

 Al 
  0.2642468  0.2449569  0.5077843

 Al 
  0.0065690  0.5102384  0.5031904

 Al 
  0.9962254  0.7472056  0.7458022

 Al 
  0.2528699  0.5008329  0.7624363

 Al 
  0.2636516  0.7413185  0.5101728

 Al 
  0.4994443  0.5026348  0.9959457

 Al 
  0.4778551  0.7503218  0.2399015

 Al 
  0.7313883  0.5069192  0.2449842

 Al 
  0.7418766  0.7577001  0.0065442

 Al 
  0.4984085  0.9973133  0.4674236

 Al 
  0.4940238  0.2672813  0.7429719

 Al 
  0.7448629  0.9922046  0.7407096

 Al 
  0.7502884  0.2529194  0.5037981

 Al 
  0.5062064  0.5151663  0.4961400

 Al 
  0.4933865  0.7540939  0.7509678

 Al 
  0.7506287  0.4928073  0.7624882

 Al 
  0.7563994  0.7524046  0.5003960

