32 
charge = 0 
 Al 
  0.0011584  0.9869945  0.0022412

 Al 
  0.9973702  0.2476746  0.2595379

 Al 
  0.2448975  0.9936822  0.2363150

 Al 
  0.2454866  0.2446030  0.0218306

 Al 
  0.5165771  0.0218950  0.9945745

 Al 
  0.5139424  0.2407208  0.2661737

 Al 
  0.7563772  0.9971895  0.2360613

 Al 
  0.7435214  0.2446624  0.9896874

 Al 
  0.0037399  0.4978603  0.0126405

 Al 
  0.0017202  0.7487773  0.2508316

 Al 
  0.2396490  0.5020680  0.2470657

 Al 
  0.2376058  0.7445634  0.9904658

 Al 
  0.0096691  0.0111851  0.5015346

 Al 
  0.0014814  0.2408272  0.7693221

 Al 
  0.2686773  0.9930214  0.7360106

 Al 
  0.2613633  0.2412616  0.5074167

 Al 
  0.0067707  0.5074019  0.5030902

 Al 
  0.9925276  0.7476746  0.7489592

 Al 
  0.2522400  0.4980162  0.7635513

 Al 
  0.2647443  0.7438951  0.5134263

 Al 
  0.5016559  0.5015395  0.9945498

 Al 
  0.4750891  0.7544020  0.2372259

 Al 
  0.7311235  0.5055777  0.2446847

 Al 
  0.7415450  0.7564923  0.0083907

 Al 
  0.4961103  0.9955114  0.4676848

 Al 
  0.4988751  0.2687751  0.7425202

 Al 
  0.7455831  0.9952700  0.7405042

 Al 
  0.7499901  0.2530630  0.5038897

 Al 
  0.5012103  0.5181352  0.4986214

 Al 
  0.4956920  0.7536533  0.7523811

 Al 
  0.7485050  0.4922764  0.7615378

 Al 
  0.7551000  0.7513279  0.4972736

