32 
charge = 0 
 Al 
  0.0008787  0.9879709  0.0002760

 Al 
  0.9966301  0.2492488  0.2595824

 Al 
  0.2454198  0.9939335  0.2356579

 Al 
  0.2460707  0.2449099  0.0208208

 Al 
  0.5166885  0.0200423  0.9954594

 Al 
  0.5159707  0.2405661  0.2654324

 Al 
  0.7565257  0.9989320  0.2366616

 Al 
  0.7450374  0.2424026  0.9886070

 Al 
  0.0049156  0.4979704  0.0128905

 Al 
  0.0015185  0.7490793  0.2508651

 Al 
  0.2416663  0.5037189  0.2458492

 Al 
  0.2379499  0.7454000  0.9915784

 Al 
  0.0082694  0.0122036  0.5018143

 Al 
  0.0006510  0.2394263  0.7694681

 Al 
  0.2683889  0.9917170  0.7373806

 Al 
  0.2597421  0.2396763  0.5070504

 Al 
  0.0067930  0.5057732  0.5030927

 Al 
  0.9907319  0.7479692  0.7505470

 Al 
  0.2517573  0.4965039  0.7639139

 Al 
  0.2648743  0.7452688  0.5148272

 Al 
  0.5025976  0.5009542  0.9940708

 Al 
  0.4740186  0.7562980  0.2357977

 Al 
  0.7312175  0.5048772  0.2446141

 Al 
  0.7413989  0.7556854  0.0090874

 Al 
  0.4951735  0.9944235  0.4683481

 Al 
  0.5012908  0.2692008  0.7423878

 Al 
  0.7459940  0.9968665  0.7403817

 Al 
  0.7499728  0.2531459  0.5040035

 Al 
  0.4987798  0.5193666  0.4998626

 Al 
  0.4971548  0.7533587  0.7531583

 Al 
  0.7475905  0.4922887  0.7608732

 Al 
  0.7543327  0.7508217  0.4956364

