32 
charge = 0 
 Al 
  0.0012462  0.9866950  0.0028711

 Al 
  0.9976115  0.2471598  0.2595082

 Al 
  0.2447218  0.9936142  0.2365576

 Al 
  0.2453183  0.2445114  0.0221264

 Al 
  0.5164608  0.0224580  0.9942775

 Al 
  0.5132221  0.2408334  0.2663544

 Al 
  0.7563252  0.9966128  0.2359091

 Al 
  0.7430560  0.2454507  0.9900846

 Al 
  0.0033105  0.4978207  0.0125377

 Al 
  0.0017809  0.7486758  0.2508354

 Al 
  0.2390228  0.5015049  0.2474939

 Al 
  0.2375217  0.7443010  0.9901082

 Al 
  0.0101220  0.0108089  0.5014467

 Al 
  0.0017796  0.2413036  0.7692429

 Al 
  0.2687454  0.9934917  0.7355985

 Al 
  0.2618806  0.2418296  0.5075120

 Al 
  0.0067534  0.5079154  0.5030976

 Al 
  0.9931328  0.7475843  0.7484295

 Al 
  0.2523774  0.4985050  0.7634016

 Al 
  0.2646367  0.7434496  0.5129251

 Al 
  0.5013180  0.5017289  0.9947428

 Al 
  0.4754938  0.7537473  0.2376887

 Al 
  0.7311247  0.5058066  0.2447193

 Al 
  0.7415982  0.7567323  0.0081258

 Al 
  0.4964556  0.9958492  0.4675424

 Al 
  0.4980645  0.2685832  0.7425771

 Al 
  0.7454532  0.9947441  0.7405413

 Al 
  0.7500149  0.2530382  0.5038624

 Al 
  0.5020308  0.5176860  0.4982055

 Al 
  0.4952502  0.7537412  0.7521336

 Al 
  0.7488342  0.4923147  0.7617309

 Al 
  0.7553388  0.7515024  0.4978095

