32 
charge = 0 
 Al 
  0.0010680  0.9873063  0.0015989

 Al 
  0.9971251  0.2481932  0.2595614

 Al 
  0.2450733  0.9937577  0.2360848

 Al 
  0.2456685  0.2446995  0.0215138

 Al 
  0.5166539  0.0213046  0.9948703

 Al 
  0.5146404  0.2406378  0.2659596

 Al 
  0.7564267  0.9977687  0.2362383

 Al 
  0.7440065  0.2438914  0.9893075

 Al 
  0.0041520  0.4978986  0.0127333

 Al 
  0.0016571  0.7488775  0.2508354

 Al 
  0.2402987  0.5026261  0.2466487

 Al 
  0.2377048  0.7448344  0.9908309

 Al 
  0.0092099  0.0115440  0.5016249

 Al 
  0.0011930  0.2403544  0.7693852

 Al 
  0.2685956  0.9925697  0.7364450

 Al 
  0.2608336  0.2407133  0.5073066

 Al 
  0.0067831  0.5068734  0.5030865

 Al 
  0.9919249  0.7477699  0.7494889

 Al 
  0.2520915  0.4975187  0.7636862

 Al 
  0.2648210  0.7443468  0.5139102

 Al 
  0.5019826  0.5013477  0.9943728

 Al 
  0.4747079  0.7550468  0.2367556

 Al 
  0.7311383  0.5053463  0.2446550

 Al 
  0.7414930  0.7562373  0.0086382

 Al 
  0.4957824  0.9951611  0.4678667

 Al 
  0.4996844  0.2689434  0.7424707

 Al 
  0.7457168  0.9957985  0.7404658

 Al 
  0.7499752  0.2530902  0.5039231

 Al 
  0.5003935  0.5185659  0.4990372

 Al 
  0.4961574  0.7535605  0.7526348

 Al 
  0.7481870  0.4922603  0.7613299

 Al 
  0.7548525  0.7511559  0.4967328

