32 
charge = 0 
 Al 
  0.0002537  0.9902480  0.9960955

 Al 
  0.9951153  0.2525457  0.2594092

 Al 
  0.2463579  0.9947094  0.2346542

 Al 
  0.2475979  0.2456500  0.0182714

 Al 
  0.5158656  0.0156465  0.9971697

 Al 
  0.5193778  0.2410574  0.2631033

 Al 
  0.7568549  0.0024033  0.2384610

 Al 
  0.7485731  0.2383644  0.9869759

 Al 
  0.0067187  0.4981300  0.0131157

 Al 
  0.0009925  0.7497116  0.2511274

 Al 
  0.2463084  0.5067831  0.2437491

 Al 
  0.2390463  0.7472637  0.9938753

 Al 
  0.0052473  0.0136837  0.5024368

 Al 
  0.9993169  0.2368063  0.7693357

 Al 
  0.2674298  0.9896317  0.7407418

 Al 
  0.2562930  0.2370427  0.5060022

 Al 
  0.0067039  0.5021880  0.5032226

 Al 
  0.9872185  0.7486251  0.7536743

 Al 
  0.2504876  0.4933209  0.7642877

 Al 
  0.2641825  0.7481585  0.5171848

 Al 
  0.5041533  0.4996918  0.9935783

 Al 
  0.4726066  0.7597421  0.2328127

 Al 
  0.7318412  0.5034342  0.2446488

 Al 
  0.7412133  0.7537424  0.0100861

 Al 
  0.4937590  0.9920016  0.4707230

 Al 
  0.5059366  0.2692862  0.7422405

 Al 
  0.7468554  0.0000817  0.7400500

 Al 
  0.7501683  0.2533501  0.5043698

 Al 
  0.4940807  0.5212403  0.5022586

 Al 
  0.5006745  0.7526348  0.7548921

 Al 
  0.7461834  0.4929013  0.7591728

 Al 
  0.7525853  0.7499220  0.4922751

