32 
charge = 0 
 Al 
  0.9999121  0.9915103  0.9939557

 Al 
  0.9943654  0.2542585  0.2591567

 Al 
  0.2467316  0.9952799  0.2343089

 Al 
  0.2485372  0.2460658  0.0167442

 Al 
  0.5149696  0.0131491  0.9979704

 Al 
  0.5207193  0.2416737  0.2615564

 Al 
  0.7570652  0.0040852  0.2396280

 Al 
  0.7505520  0.2365997  0.9864475

 Al 
  0.0073276  0.4981771  0.0130835

 Al 
  0.0006596  0.7500569  0.2513502

 Al 
  0.2489072  0.5081667  0.2428914

 Al 
  0.2397765  0.7482724  0.9949842

 Al 
  0.0036174  0.0141070  0.5027721

 Al 
  0.9988429  0.2356319  0.7690312

 Al 
  0.2667603  0.9888805  0.7427417

 Al 
  0.2545307  0.2360007  0.5053388

 Al 
  0.0065999  0.5002772  0.5033538

 Al 
  0.9855007  0.7489629  0.7551829

 Al 
  0.2497166  0.4916737  0.7643099

 Al 
  0.2633236  0.7496560  0.5181377

 Al 
  0.5047696  0.4990100  0.9935634

 Al 
  0.4723170  0.7612705  0.2313029

 Al 
  0.7323771  0.5027028  0.2447564

 Al 
  0.7412022  0.7526422  0.0104129

 Al 
  0.4932986  0.9907381  0.4724098

 Al 
  0.5080974  0.2689038  0.7422083

 Al 
  0.7472712  0.0016521  0.7398272

 Al 
  0.7503614  0.2534751  0.5046173

 Al 
  0.4918333  0.5218529  0.5033798

 Al 
  0.5027028  0.7522214  0.7558500

 Al 
  0.7457391  0.4935065  0.7581493

 Al 
  0.7516187  0.7495409  0.4905772

