32 
charge = 0 
 Al 
  0.0007809  0.9883224  0.9995990

 Al 
  0.9963801  0.2497847  0.2595800

 Al 
  0.2455881  0.9940337  0.2354624

 Al 
  0.2462923  0.2450225  0.0204445

 Al 
  0.5166465  0.0193716  0.9957514

 Al 
  0.5166007  0.2405747  0.2651205

 Al 
  0.7565752  0.9995136  0.2369078

 Al 
  0.7455819  0.2416848  0.9882840

 Al 
  0.0052683  0.4980026  0.0129536

 Al 
  0.0014430  0.7491807  0.2508910

 Al 
  0.2423840  0.5042523  0.2454668

 Al 
  0.2380959  0.7456933  0.9919596

 Al 
  0.0077867  0.0125043  0.5019120

 Al 
  0.0003960  0.2389708  0.7694867

 Al 
  0.2682652  0.9913197  0.7378818

 Al 
  0.2591827  0.2391874  0.5069044

 Al 
  0.0067893  0.5052040  0.5031026

 Al 
  0.9901391  0.7480731  0.7510742

 Al 
  0.2515729  0.4959878  0.7640092

 Al 
  0.2648495  0.7457378  0.5152616

 Al 
  0.5028872  0.5007524  0.9939458

 Al 
  0.4737129  0.7569056  0.2353101

 Al 
  0.7312806  0.5046409  0.2446042

 Al 
  0.7413556  0.7553908  0.0092891

 Al 
  0.4948951  0.9940387  0.4686476

 Al 
  0.5020865  0.2692886  0.7423543

 Al 
  0.7461351  0.9974024  0.7403359

 Al 
  0.7499851  0.2531768  0.5040518

 Al 
  0.4979803  0.5197342  0.5002723

 Al 
  0.4976882  0.7532498  0.7534305

 Al 
  0.7473145  0.4923358  0.7606232

 Al 
  0.7540604  0.7506596  0.4950832

