32 
charge = 0 
 Al 
  0.0003638  0.9898433  0.9968071

 Al 
  0.9953690  0.2519826  0.2594661

 Al 
  0.2462168  0.9945498  0.2347928

 Al 
  0.2473108  0.2455163  0.0187441

 Al 
  0.5160957  0.0164385  0.9968925

 Al 
  0.5188741  0.2409052  0.2635649

 Al 
  0.7567930  0.0018304  0.2381083

 Al 
  0.7479407  0.2389919  0.9871962

 Al 
  0.0064725  0.4981090  0.0131045

 Al 
  0.0010928  0.7496015  0.2510668

 Al 
  0.2454804  0.5062980  0.2440659

 Al 
  0.2388273  0.7469370  0.9934941

 Al 
  0.0057732  0.0134931  0.5023266

 Al 
  0.9995050  0.2372209  0.7694000

 Al 
  0.2676254  0.9899275  0.7401230

 Al 
  0.2568796  0.2374313  0.5062039

 Al 
  0.0067299  0.5028117  0.5031892

 Al 
  0.9877964  0.7485124  0.7531607

 Al 
  0.2507264  0.4938642  0.7642567

 Al 
  0.2643916  0.7476660  0.5168333

 Al 
  0.5039243  0.4999121  0.9936179

 Al 
  0.4727687  0.7592038  0.2333164

 Al 
  0.7316965  0.5036768  0.2446265

 Al 
  0.7412306  0.7540926  0.0099537

 Al 
  0.4939508  0.9924199  0.4702329

 Al 
  0.5051879  0.2693481  0.7422566

 Al 
  0.7467118  0.9995495  0.7401144

 Al 
  0.7501163  0.2533117  0.5042956

 Al 
  0.4948468  0.5209866  0.5018712

 Al 
  0.5000359  0.7527672  0.7545864

 Al 
  0.7463727  0.4927429  0.7594896

 Al 
  0.7528947  0.7500594  0.4928407

