32 
charge = 0 
 Al 
  0.0004715  0.9894473  0.9975150

 Al 
  0.9956215  0.2514257  0.2595119

 Al 
  0.2460683  0.9944025  0.2349426

 Al 
  0.2470360  0.2453876  0.0191983

 Al 
  0.5162900  0.0172071  0.9966116

 Al 
  0.5183444  0.2407802  0.2639993

 Al 
  0.7567348  0.0012549  0.2377766

 Al 
  0.7473256  0.2396379  0.9874375

 Al 
  0.0062027  0.4980855  0.0130835

 Al 
  0.0011881  0.7494938  0.2510123

 Al 
  0.2446735  0.5058017  0.2443951

 Al 
  0.2386231  0.7466165  0.9931117

 Al 
  0.0062905  0.0132790  0.5022202

 Al 
  0.9997079  0.2376467  0.7694458

 Al 
  0.2678060  0.9902443  0.7395277

 Al 
  0.2574625  0.2378397  0.5063957

 Al 
  0.0067509  0.5034256  0.5031595

 Al 
  0.9883781  0.7483998  0.7526434

 Al 
  0.2509542  0.4944025  0.7642134

 Al 
  0.2645612  0.7471771  0.5164645

 Al 
  0.5036830  0.5001275  0.9936736

 Al 
  0.4729605  0.7586493  0.2338201

 Al 
  0.7315677  0.5039194  0.2446117

 Al 
  0.7412541  0.7544342  0.0098077

 Al 
  0.4941599  0.9928345  0.4697787

 Al 
  0.5044268  0.2693790  0.7422764

 Al 
  0.7465670  0.9990149  0.7401762

 Al 
  0.7500718  0.2532758  0.5042275

 Al 
  0.4956203  0.5207081  0.5014789

 Al 
  0.4994171  0.7528934  0.7542869

 Al 
  0.7465819  0.4926080  0.7597928

 Al 
  0.7531979  0.7502030  0.4934050

