32 
charge = 0 
 Al 
  0.9997958  0.9919435  0.9932466

 Al 
  0.9941191  0.2548364  0.2590453

 Al 
  0.2468368  0.9955015  0.2342198

 Al 
  0.2488751  0.2462093  0.0161997

 Al 
  0.5146082  0.0122803  0.9982253

 Al 
  0.5211091  0.2419274  0.2609920

 Al 
  0.7571432  0.0046310  0.2400525

 Al 
  0.7512338  0.2360539  0.9863175

 Al 
  0.0074848  0.4981882  0.0130501

 Al 
  0.0005383  0.7501770  0.2514368

 Al 
  0.2498082  0.5085998  0.2426377

 Al 
  0.2400413  0.7486176  0.9953381

 Al 
  0.0030555  0.0141973  0.5028860

 Al 
  0.9987191  0.2352681  0.7688914

 Al 
  0.2665103  0.9886763  0.7434533

 Al 
  0.2539466  0.2356938  0.5050988

 Al 
  0.0065566  0.4996300  0.5034082

 Al 
  0.9849352  0.7490731  0.7556730

 Al 
  0.2494419  0.4911193  0.7642951

 Al 
  0.2629573  0.7501596  0.5184211

 Al 
  0.5049515  0.4987736  0.9935907

 Al 
  0.4722897  0.7617482  0.2308054

 Al 
  0.7325887  0.5024603  0.2448060

 Al 
  0.7412145  0.7522623  0.0104995

 Al 
  0.4931835  0.9903198  0.4730409

 Al 
  0.5087855  0.2687095  0.7422021

 Al 
  0.7474011  0.0021608  0.7397443

 Al 
  0.7504369  0.2535209  0.5047065

 Al 
  0.4911032  0.5220039  0.5037387

 Al 
  0.5034132  0.7520779  0.7561804

 Al 
  0.7456339  0.4937528  0.7577843

 Al 
  0.7512846  0.7494258  0.4900129

