32 
charge = 0 
 Al 
  0.9986436  0.9962081  0.9868546

 Al 
  0.9919497  0.2605416  0.2571160

 Al 
  0.2471994  0.9986808  0.2340936

 Al 
  0.2528043  0.2476709  0.0100205

 Al 
  0.5097013  0.0031533  0.0002525

 Al 
  0.5232451  0.2455039  0.2543587

 Al 
  0.7581927  0.0093708  0.2450002

 Al 
  0.7581803  0.2319390  0.9863658

 Al 
  0.0078016  0.4982006  0.0120996

 Al 
  0.9990607  0.7515197  0.2525840

 Al 
  0.2593263  0.5119870  0.2410623

 Al 
  0.2430115  0.7521138  0.9980620

 Al 
  0.9971313  0.0135785  0.5039280

 Al 
  0.9985409  0.2327682  0.7663111

 Al 
  0.2634115  0.9879746  0.7515927

 Al 
  0.2485471  0.2337657  0.5023167

 Al 
  0.0059143  0.4932627  0.5042387

 Al 
  0.9796706  0.7500074  0.7599624

 Al 
  0.2463504  0.4857099  0.7635402

 Al 
  0.2571482  0.7550913  0.5203195

 Al 
  0.5061940  0.4961425  0.9946141

 Al 
  0.4741609  0.7655364  0.2265074

 Al 
  0.7356084  0.5002327  0.2456636

 Al 
  0.7419200  0.7483639  0.0109215

 Al 
  0.4931105  0.9866554  0.4808846

 Al 
  0.5144114  0.2649547  0.7422801

 Al 
  0.7482216  0.0065083  0.7386714

 Al 
  0.7513180  0.2541038  0.5056532

 Al 
  0.4845490  0.5220014  0.5067682

 Al 
  0.5110440  0.7506287  0.7596431

 Al 
  0.7458789  0.4972291  0.7536916

 Al 
  0.7477526  0.7485929  0.4846220

