32 
charge = 0 
 Al 
  0.9987501  0.9958109  0.9874029

 Al 
  0.9921328  0.2599958  0.2573746

 Al 
  0.2472254  0.9982835  0.2340379

 Al 
  0.2523774  0.2475286  0.0106826

 Al 
  0.5102643  0.0040642  0.0001040

 Al 
  0.5231808  0.2450844  0.2550765

 Al 
  0.7580677  0.0089711  0.2444644

 Al 
  0.7575083  0.2322274  0.9862494

 Al 
  0.0078684  0.4982043  0.0122432

 Al 
  0.9992253  0.7513762  0.2524504

 Al 
  0.2583647  0.5117370  0.2411366

 Al 
  0.2427095  0.7517722  0.9978751

 Al 
  0.9977365  0.0137679  0.5038414

 Al 
  0.9984654  0.2329043  0.7666687

 Al 
  0.2637605  0.9879362  0.7507165

 Al 
  0.2490310  0.2338684  0.5026187

 Al 
  0.0059948  0.4938666  0.5041335

 Al 
  0.9801532  0.7499344  0.7595985

 Al 
  0.2466771  0.4862259  0.7636627

 Al 
  0.2578944  0.7546198  0.5202057

 Al 
  0.5061111  0.4964284  0.9944631

 Al 
  0.4737909  0.7652443  0.2268502

 Al 
  0.7352371  0.5004294  0.2455497

 Al 
  0.7417950  0.7487451  0.0109066

 Al 
  0.4930313  0.9869561  0.4800010

 Al 
  0.5139671  0.2654683  0.7422590

 Al 
  0.7481932  0.0061556  0.7387939

 Al 
  0.7512301  0.2540345  0.5055666

 Al 
  0.4851294  0.5221264  0.5065158

 Al 
  0.5102656  0.7507661  0.7592990

 Al 
  0.7457490  0.4968145  0.7541248

 Al 
  0.7481115  0.7486498  0.4851270

