32 
charge = 0 
 Al 
  0.9996782  0.9923791  0.9925437

 Al 
  0.9938765  0.2554156  0.2589191

 Al 
  0.2469308  0.9957403  0.2341431

 Al 
  0.2492253  0.2463541  0.0156391

 Al 
  0.5142159  0.0113967  0.9984728

 Al 
  0.5214680  0.2422046  0.2604042

 Al 
  0.7572274  0.0051668  0.2404930

 Al 
  0.7519256  0.2355292  0.9862111

 Al 
  0.0076184  0.4981969  0.0130043

 Al 
  0.0004109  0.7502995  0.2515284

 Al 
  0.2507252  0.5090194  0.2424001

 Al 
  0.2403173  0.7489654  0.9956821

 Al 
  0.0024875  0.0142617  0.5029986

 Al 
  0.9986127  0.2349203  0.7687305

 Al 
  0.2662480  0.9884969  0.7441884

 Al 
  0.2533662  0.2354091  0.5048512

 Al 
  0.0065096  0.4989790  0.5034677

 Al 
  0.9843745  0.7491820  0.7561544

 Al 
  0.2491585  0.4905661  0.7642679

 Al 
  0.2625501  0.7506646  0.5186884

 Al 
  0.5051223  0.4985323  0.9936340

 Al 
  0.4722984  0.7622098  0.2303153

 Al 
  0.7328177  0.5022202  0.2448629

 Al 
  0.7412368  0.7518774  0.0105774

 Al 
  0.4930870  0.9899064  0.4737043

 Al 
  0.5094537  0.2684805  0.7421984

 Al 
  0.7475249  0.0026620  0.7396552

 Al 
  0.7505173  0.2535691  0.5048005

 Al 
  0.4903829  0.5221289  0.5040877

 Al 
  0.5041372  0.7519318  0.7565170

 Al 
  0.7455522  0.4940189  0.7574093

 Al 
  0.7509443  0.7493156  0.4894498

