32 
charge = 0 
 Al 
  0.9978553  0.9993317  0.9830763

 Al 
  0.9907628  0.2652740  0.2538303

 Al 
  0.2462032  0.0034540  0.2355230

 Al 
  0.2572645  0.2488961  0.0032919

 Al 
  0.5039169  0.9949928  0.0008564

 Al 
  0.5221548  0.2499022  0.2470670

 Al 
  0.7595317  0.0122939  0.2504740

 Al 
  0.7639325  0.2307114  0.9887468

 Al 
  0.0061643  0.4982080  0.0101455

 Al 
  0.9974184  0.7529912  0.2540369

 Al 
  0.2682875  0.5132729  0.2412591

 Al 
  0.2456623  0.7550889  0.9987030

 Al 
  0.9912541  0.0102384  0.5044057

 Al 
  0.0004232  0.2330825  0.7616021

 Al 
  0.2597124  0.9895711  0.7605007

 Al 
  0.2447156  0.2336704  0.4991597

 Al 
  0.0049564  0.4881590  0.5055257

 Al 
  0.9756881  0.7504505  0.7625650

 Al 
  0.2431229  0.4812287  0.7617952

 Al 
  0.2481065  0.7593040  0.5206289

 Al 
  0.5066965  0.4930560  0.9963356

 Al 
  0.4799750  0.7673444  0.2248082

 Al 
  0.7399881  0.4987562  0.2471016

 Al 
  0.7439458  0.7450200  0.0109623

 Al 
  0.4947230  0.9847805  0.4903025

 Al 
  0.5171539  0.2585664  0.7427578

 Al 
  0.7477216  0.0086543  0.7374202

 Al 
  0.7519665  0.2549292  0.5060987

 Al 
  0.4798451  0.5193864  0.5086803

 Al 
  0.5183333  0.7494914  0.7627098

 Al 
  0.7482303  0.5016385  0.7493688

 Al 
  0.7442862  0.7482538  0.4802609

