32 
charge = 0 
 Al 
  0.9978095  0.9995433  0.9828882

 Al 
  0.9907195  0.2656539  0.2534429

 Al 
  0.2460386  0.0039986  0.2357519

 Al 
  0.2577187  0.2489914  0.0026286

 Al 
  0.5033563  0.9943134  0.0008230

 Al 
  0.5218838  0.2503317  0.2463517

 Al 
  0.7596629  0.0124821  0.2510148

 Al 
  0.7643867  0.2307547  0.9890884

 Al 
  0.0059205  0.4982216  0.0099030

 Al 
  0.9972675  0.7531372  0.2541854

 Al 
  0.2690845  0.5132840  0.2413631

 Al 
  0.2458752  0.7553240  0.9986511

 Al 
  0.9907022  0.0097730  0.5044082

 Al 
  0.0007116  0.2332793  0.7610279

 Al 
  0.2593337  0.9898421  0.7613707

 Al 
  0.2444396  0.2337384  0.4988379

 Al 
  0.0048475  0.4877630  0.5056742

 Al 
  0.9753861  0.7504690  0.7627135

 Al 
  0.2428197  0.4808660  0.7615712

 Al 
  0.2470732  0.7596678  0.5205856

 Al 
  0.5067274  0.4927318  0.9965051

 Al 
  0.4807472  0.7674162  0.2248379

 Al 
  0.7404807  0.4986634  0.2472712

 Al 
  0.7442305  0.7447453  0.0109660

 Al 
  0.4949458  0.9847149  0.4912715

 Al 
  0.5172566  0.2578313  0.7428382

 Al 
  0.7475967  0.0087248  0.7373100

 Al 
  0.7519987  0.2550245  0.5060876

 Al 
  0.4794874  0.5190028  0.5088189

 Al 
  0.5189805  0.7494035  0.7629610

 Al 
  0.7485508  0.5020729  0.7489493

 Al 
  0.7439595  0.7482352  0.4799045

