32 
charge = 0 
 Al 
  0.9977080  0.0000619  0.9825392

 Al 
  0.9906873  0.2666737  0.2522313

 Al 
  0.2454878  0.0056866  0.2365279

 Al 
  0.2590800  0.2492364  0.0006732

 Al 
  0.5017276  0.9924608  0.0006188

 Al 
  0.5209160  0.2515754  0.2442441

 Al 
  0.7600366  0.0129461  0.2526051

 Al 
  0.7656007  0.2310628  0.9901948

 Al 
  0.0051198  0.4982835  0.0091332

 Al 
  0.9968467  0.7535629  0.2546211

 Al 
  0.2713368  0.5131937  0.2417479

 Al 
  0.2464470  0.7559415  0.9983924

 Al 
  0.9891070  0.0082570  0.5043723

 Al 
  0.0016596  0.2340354  0.7592087

 Al 
  0.2582001  0.9907641  0.7639077

 Al 
  0.2437280  0.2340033  0.4978689

 Al 
  0.0045072  0.4867197  0.5061296

 Al 
  0.9745953  0.7505000  0.7630340

 Al 
  0.2419447  0.4798921  0.7608410

 Al 
  0.2438642  0.7606963  0.5203926

 Al 
  0.5068202  0.4917554  0.9969828

 Al 
  0.4832409  0.7675202  0.2251646

 Al 
  0.7420066  0.4984444  0.2478046

 Al 
  0.7451797  0.7439941  0.0109858

 Al 
  0.4956524  0.9846517  0.4941859

 Al 
  0.5173840  0.2555554  0.7431241

 Al 
  0.7471524  0.0087805  0.7370167

 Al 
  0.7520519  0.2553265  0.5059762

 Al 
  0.4785357  0.5177405  0.5091926

 Al 
  0.5208010  0.7491597  0.7636367

 Al 
  0.7495755  0.5033303  0.7477105

 Al 
  0.7429991  0.7481882  0.4789354

