32 
charge = 0 
 Al 
  0.9976301  0.0005965  0.9828214

 Al 
  0.9911056  0.2681414  0.2496176

 Al 
  0.2441859  0.0092458  0.2384523

 Al 
  0.2617618  0.2495557  0.9969754

 Al 
  0.4987798  0.9896404  0.9998032

 Al 
  0.5183432  0.2537820  0.2402492

 Al 
  0.7606294  0.0134771  0.2555777

 Al 
  0.7673457  0.2324576  0.9926885

 Al 
  0.0032523  0.4985298  0.0074080

 Al 
  0.9962019  0.7543537  0.2554081

 Al 
  0.2751547  0.5125229  0.2427974

 Al 
  0.2473120  0.7567051  0.9975236

 Al 
  0.9862383  0.0047560  0.5041273

 Al 
  0.0038327  0.2361987  0.7551866

 Al 
  0.2559477  0.9930597  0.7685127

 Al 
  0.2428159  0.2347619  0.4959309

 Al 
  0.0037684  0.4853163  0.5070615

 Al 
  0.9735496  0.7504975  0.7631058

 Al 
  0.2404064  0.4785122  0.7591320

 Al 
  0.2370489  0.7624709  0.5197379

 Al 
  0.5070492  0.4898421  0.9977266

 Al 
  0.4889127  0.7672491  0.2268997

 Al 
  0.7452304  0.4982699  0.2489592

 Al 
  0.7475063  0.7428345  0.0110873

 Al 
  0.4971264  0.9851109  0.4999839

 Al 
  0.5168531  0.2507846  0.7438926

 Al 
  0.7460423  0.0082199  0.7366851

 Al 
  0.7519343  0.2559972  0.5054069

 Al 
  0.4771657  0.5147493  0.5098102

 Al 
  0.5238503  0.7487439  0.7645995

 Al 
  0.7518378  0.5055344  0.7453468

 Al 
  0.7411787  0.7480793  0.4774850

