32 
charge = 0 
 Al 
  0.9976412  0.0004888  0.9825813

 Al 
  0.9908891  0.2677392  0.2505124

 Al 
  0.2446438  0.0080392  0.2377593

 Al 
  0.2608782  0.2494740  0.9981696

 Al 
  0.4997092  0.9904460  0.0001287

 Al 
  0.5192874  0.2530964  0.2415437

 Al 
  0.7604611  0.0133533  0.2546260

 Al 
  0.7668655  0.2318784  0.9918271

 Al 
  0.0039095  0.4984283  0.0080095

 Al 
  0.9963838  0.7541025  0.2551631

 Al 
  0.2739901  0.5128137  0.2424125

 Al 
  0.2470620  0.7565269  0.9978528

 Al 
  0.9871430  0.0059849  0.5042300

 Al 
  0.0030791  0.2353906  0.7565776

 Al 
  0.2566952  0.9922318  0.7670623

 Al 
  0.2430449  0.2344797  0.4965769

 Al 
  0.0040233  0.4856789  0.5067521

 Al 
  0.9738169  0.7505037  0.7631664

 Al 
  0.2408829  0.4788822  0.7597384

 Al 
  0.2393706  0.7619214  0.5199916

 Al 
  0.5069601  0.4904683  0.9975174

 Al 
  0.4869313  0.7674076  0.2261608

 Al 
  0.7441352  0.4982909  0.2485632

 Al 
  0.7466672  0.7431687  0.0110428

 Al 
  0.4966375  0.9848733  0.4980595

 Al 
  0.5171415  0.2523984  0.7436080

 Al 
  0.7464358  0.0085021  0.7367494

 Al 
  0.7520098  0.2557633  0.5056495

 Al 
  0.4775444  0.5158111  0.5096183

 Al 
  0.5229271  0.7488751  0.7643396

 Al 
  0.7510606  0.5048562  0.7461165

 Al 
  0.7417714  0.7481226  0.4778922

