32 
charge = 0 
 Al 
  0.9976288  0.0006398  0.9832050

 Al 
  0.9914039  0.2684533  0.2487018

 Al 
  0.2437070  0.0104648  0.2391924

 Al 
  0.2626306  0.2496151  0.9958294

 Al 
  0.4979110  0.9889696  0.9994344

 Al 
  0.5173197  0.2544082  0.2389981

 Al 
  0.7607631  0.0135563  0.2564824

 Al 
  0.7677244  0.2331481  0.9935684

 Al 
  0.0025655  0.4986511  0.0067806

 Al 
  0.9960608  0.7545914  0.2556297

 Al 
  0.2762029  0.5121714  0.2432095

 Al 
  0.2475261  0.7568004  0.9971722

 Al 
  0.9853893  0.0034751  0.5040097

 Al 
  0.0046025  0.2370811  0.7537523

 Al 
  0.2552027  0.9939446  0.7698604

 Al 
  0.2426575  0.2350713  0.4952861

 Al 
  0.0035060  0.4850601  0.5073635

 Al 
  0.9733664  0.7504913  0.7629598

 Al 
  0.2399708  0.4782399  0.7584884

 Al 
  0.2346876  0.7629808  0.5194495

 Al 
  0.5071568  0.4892369  0.9978875

 Al 
  0.4909720  0.7670276  0.2277944

 Al 
  0.7463442  0.4982835  0.2493651

 Al 
  0.7484085  0.7425536  0.0111430

 Al 
  0.4976016  0.9854277  0.5018947

 Al 
  0.5164596  0.2491585  0.7442070

 Al 
  0.7456364  0.0078486  0.7366776

 Al 
  0.7518205  0.2562398  0.5051124

 Al 
  0.4768662  0.5136256  0.5099946

 Al 
  0.5246782  0.7486139  0.7647963

 Al 
  0.7526311  0.5061445  0.7445956

 Al 
  0.7405995  0.7480261  0.4771595

