32 
charge = 0 
 Al 
  0.9976313  0.0006237  0.9837335

 Al 
  0.9917875  0.2686736  0.2477699

 Al 
  0.2432120  0.0116875  0.2399733

 Al 
  0.2634758  0.2496522  0.9947379

 Al 
  0.4971115  0.9884325  0.9990298

 Al 
  0.5162257  0.2549701  0.2377952

 Al 
  0.7608559  0.0135934  0.2573301

 Al 
  0.7680016  0.2339463  0.9944582

 Al 
  0.0018539  0.4987934  0.0061259

 Al 
  0.9959631  0.7548141  0.2558240

 Al 
  0.2771298  0.5117643  0.2436464

 Al 
  0.2477068  0.7568066  0.9968071

 Al 
  0.9845973  0.0021509  0.5038810

 Al 
  0.0053723  0.2380278  0.7522821

 Al 
  0.2544602  0.9948802  0.7710905

 Al 
  0.2425721  0.2354042  0.4946438

 Al 
  0.0032362  0.4849116  0.5076506

 Al 
  0.9732687  0.7504888  0.7627283

 Al 
  0.2395797  0.4780692  0.7578090

 Al 
  0.2322979  0.7634498  0.5191302

 Al 
  0.5072917  0.4886590  0.9979927

 Al 
  0.4930994  0.7667455  0.2288414

 Al 
  0.7474717  0.4983305  0.2497797

 Al 
  0.7493701  0.7423308  0.0112111

 Al 
  0.4980533  0.9858225  0.5037894

 Al 
  0.5159683  0.2475274  0.7445485

 Al 
  0.7452255  0.0073932  0.7367358

 Al 
  0.7516682  0.2564923  0.5047671

 Al 
  0.4766435  0.5124437  0.5101752

 Al 
  0.5254059  0.7484827  0.7649275

 Al 
  0.7534318  0.5066742  0.7438666

 Al 
  0.7400339  0.7479593  0.4769182

