32 
charge = 0 
 Al 
  0.9976288  0.0006262  0.9829959

 Al 
  0.9912442  0.2683085  0.2491622

 Al 
  0.2439483  0.0098547  0.2388174

 Al 
  0.2621987  0.2495879  0.9963962

 Al 
  0.4983367  0.9892877  0.9996238

 Al 
  0.5178407  0.2541025  0.2396181

 Al 
  0.7607012  0.0135228  0.2560368

 Al 
  0.7675474  0.2327892  0.9931266

 Al 
  0.0029120  0.4985879  0.0070974

 Al 
  0.9961264  0.7544750  0.2555220

 Al 
  0.2756930  0.5123546  0.2430003

 Al 
  0.2474234  0.7567645  0.9973504

 Al 
  0.9858064  0.0041211  0.5040703

 Al 
  0.0042164  0.2366318  0.7544750

 Al 
  0.2555740  0.9934954  0.7692008

 Al 
  0.2427281  0.2349141  0.4956091

 Al 
  0.0036384  0.4851740  0.5072138

 Al 
  0.9734469  0.7504950  0.7630427

 Al 
  0.2401837  0.4783637  0.7588152

 Al 
  0.2358732  0.7627308  0.5195980

 Al 
  0.5070999  0.4895364  0.9978132

 Al 
  0.4899324  0.7671464  0.2273279

 Al 
  0.7457861  0.4982724  0.2491622

 Al 
  0.7479494  0.7426872  0.0111133

 Al 
  0.4973665  0.9852594  0.5009405

 Al 
  0.5166700  0.2499728  0.7440461

 Al 
  0.7458406  0.0080454  0.7366739

 Al 
  0.7518823  0.2561173  0.5052658

 Al 
  0.4770061  0.5141948  0.5099030

 Al 
  0.5242773  0.7486795  0.7647060

 Al 
  0.7522338  0.5058487  0.7449681

 Al 
  0.7408878  0.7480546  0.4773118

