32 
charge = 0 
 Al 
  0.9976313  0.0004987  0.9847928

 Al 
  0.9925313  0.2688345  0.2463517

 Al 
  0.2424434  0.0135129  0.2412084

 Al 
  0.2646886  0.2496807  0.9932182

 Al 
  0.4960547  0.9878731  0.9983751

 Al 
  0.5144683  0.2556755  0.2360861

 Al 
  0.7609141  0.0135810  0.2584810

 Al 
  0.7682293  0.2353386  0.9957873

 Al 
  0.0007512  0.4990446  0.0050938

 Al 
  0.9959037  0.7551136  0.2560529

 Al 
  0.2782808  0.5110613  0.2443320

 Al 
  0.2479184  0.7566358  0.9962613

 Al 
  0.9835181  0.0001077  0.5036780

 Al 
  0.0065022  0.2395451  0.7500272

 Al 
  0.2533488  0.9963665  0.7726907

 Al 
  0.2425734  0.2359475  0.4936860

 Al 
  0.0028179  0.4848943  0.5080380

 Al 
  0.9732934  0.7505012  0.7622284

 Al 
  0.2390847  0.4780197  0.7567274

 Al 
  0.2286768  0.7640711  0.5185956

 Al 
  0.5075491  0.4878570  0.9980372

 Al 
  0.4963975  0.7662195  0.2306841

 Al 
  0.7491807  0.4984543  0.2504084

 Al 
  0.7509195  0.7421044  0.0113348

 Al 
  0.4986659  0.9865489  0.5065974

 Al 
  0.5150574  0.2450881  0.7451092

 Al 
  0.7446203  0.0065653  0.7369586

 Al 
  0.7513675  0.2568833  0.5041594

 Al 
  0.4764578  0.5105688  0.5104525

 Al 
  0.5263069  0.7482736  0.7649993

 Al 
  0.7546310  0.5073016  0.7428209

 Al 
  0.7392134  0.7478256  0.4767264

