32 
charge = 0 
 Al 
  0.9973133  0.9993082  0.9912232

 Al 
  0.9970274  0.2676959  0.2411997

 Al 
  0.2394782  0.0196364  0.2460930

 Al 
  0.2681192  0.2497970  0.9891552

 Al 
  0.4939656  0.9880823  0.9959878

 Al 
  0.5073437  0.2566247  0.2311433

 Al 
  0.7601864  0.0130241  0.2610848

 Al 
  0.7672714  0.2421501  0.0000879

 Al 
  0.9966536  0.5002908  0.0007908

 Al 
  0.9966771  0.7558376  0.2560282

 Al 
  0.2797956  0.5078647  0.2469407

 Al 
  0.2481610  0.7540085  0.9946871

 Al 
  0.9805901  0.9927095  0.5030345

 Al 
  0.0096394  0.2454928  0.7417356

 Al 
  0.2492327  0.0022412  0.7754690

 Al 
  0.2438258  0.2384436  0.4903495

 Al 
  0.0011806  0.4869103  0.5086023

 Al 
  0.9752129  0.7508824  0.7589785

 Al 
  0.2384350  0.4801965  0.7522969

 Al 
  0.2157208  0.7653495  0.5161366

 Al 
  0.5092632  0.4859623  0.9967761

 Al 
  0.5090255  0.7634090  0.2396998

 Al 
  0.7554007  0.4993218  0.2526880

 Al 
  0.7574291  0.7425288  0.0119450

 Al 
  0.4998416  0.9903111  0.5162331

 Al 
  0.5103881  0.2367568  0.7475472

 Al 
  0.7430536  0.0024875  0.7395042

 Al 
  0.7495867  0.2583362  0.5012103

 Al 
  0.4773415  0.5028947  0.5116925

 Al 
  0.5275519  0.7470954  0.7640451

 Al 
  0.7586667  0.5074402  0.7396329

 Al 
  0.7366232  0.7469110  0.4780011

