32 
charge = 0 
 Al 
  0.9975484  0.9999604  0.9878385

 Al 
  0.9946451  0.2685374  0.2434991

 Al 
  0.2408396  0.0170251  0.2438394

 Al 
  0.2668123  0.2497005  0.9906799

 Al 
  0.4945337  0.9875872  0.9970125

 Al 
  0.5106492  0.2565343  0.2330924

 Al 
  0.7607074  0.0133570  0.2602520

 Al 
  0.7680412  0.2387654  0.9983008

 Al 
  0.9984852  0.4996733  0.0028476

 Al 
  0.9961289  0.7555851  0.2562324

 Al 
  0.2796557  0.5093980  0.2457626

 Al 
  0.2481461  0.7555987  0.9952824

 Al 
  0.9817373  0.9959693  0.5032857

 Al 
  0.0084884  0.2427838  0.7454482

 Al 
  0.2511262  0.9995446  0.7748602

 Al 
  0.2430276  0.2372036  0.4918123

 Al 
  0.0019417  0.4855985  0.5085602

 Al 
  0.9739815  0.7506274  0.7607049

 Al 
  0.2384820  0.4787263  0.7543760

 Al 
  0.2214581  0.7649881  0.5173432

 Al 
  0.5083189  0.4865811  0.9976437

 Al 
  0.5032560  0.7648371  0.2352346

 Al 
  0.7526113  0.4988689  0.2516719

 Al 
  0.7543476  0.7420796  0.0116504

 Al 
  0.4995570  0.9884226  0.5120291

 Al 
  0.5127160  0.2403619  0.7463777

 Al 
  0.7435783  0.0044924  0.7379796

 Al 
  0.7505173  0.2576890  0.5026657

 Al 
  0.4766286  0.5065083  0.5110749

 Al 
  0.5273947  0.7477427  0.7647035

 Al 
  0.7569440  0.5078362  0.7409349

 Al 
  0.7376949  0.7474172  0.4770049

