32 
charge = 0 
 Al 
  0.9966351  0.9982748  0.9969123

 Al 
  0.0011138  0.2657703  0.2382828

 Al 
  0.2376924  0.0224246  0.2491349

 Al 
  0.2689161  0.2502822  0.9879981

 Al 
  0.4943245  0.9895797  0.9950398

 Al 
  0.5029541  0.2557633  0.2294763

 Al 
  0.7589204  0.0124623  0.2611814

 Al 
  0.7653978  0.2473467  0.0018551

 Al 
  0.9944322  0.5011757  0.9976771

 Al 
  0.9979543  0.7559613  0.2551012

 Al 
  0.2784392  0.5057720  0.2484295

 Al 
  0.2480013  0.7507958  0.9942924

 Al 
  0.9793401  0.9889733  0.5029132

 Al 
  0.0101393  0.2489357  0.7370464

 Al 
  0.2464024  0.0056965  0.7743651

 Al 
  0.2454557  0.2404992  0.4886231

 Al 
  0.0000928  0.4897282  0.5078338

 Al 
  0.9778513  0.7515024  0.7560999

 Al 
  0.2391243  0.4836357  0.7493837

 Al 
  0.2087793  0.7651205  0.5142778

 Al 
  0.5110613  0.4859450  0.9947589

 Al 
  0.5166143  0.7610923  0.2464210

 Al 
  0.7590218  0.4999554  0.2539602

 Al 
  0.7617779  0.7439025  0.0122779

 Al 
  0.4994035  0.9932070  0.5212440

 Al 
  0.5069167  0.2326135  0.7492760

 Al 
  0.7431526  0.9995879  0.7427244

 Al 
  0.7480372  0.2590614  0.4990013

 Al 
  0.4792547  0.4976981  0.5126825

 Al 
  0.5265989  0.7457193  0.7626256

 Al 
  0.7605490  0.5055369  0.7383496

 Al 
  0.7356443  0.7459792  0.4807534

