32 
charge = 0 
 Al 
  0.9969766  0.9987204  0.9943691

 Al 
  0.9992773  0.2666861  0.2394782

 Al 
  0.2384263  0.0213826  0.2478615

 Al 
  0.2687429  0.2500099  0.9883533

 Al 
  0.4940077  0.9888508  0.9953554

 Al 
  0.5047720  0.2562707  0.2300270

 Al 
  0.7595379  0.0127073  0.2612915

 Al 
  0.7663012  0.2450819  0.0012165

 Al 
  0.9953171  0.5008044  0.9990397

 Al 
  0.9973392  0.7559428  0.2555950

 Al 
  0.2792374  0.5066408  0.2478231

 Al 
  0.2480867  0.7522957  0.9943976

 Al 
  0.9798389  0.9904188  0.5029244

 Al 
  0.0100997  0.2475335  0.7389609

 Al 
  0.2476511  0.0042919  0.7751163

 Al 
  0.2446958  0.2395711  0.4893025

 Al 
  0.0005594  0.4883941  0.5082929

 Al 
  0.9766014  0.7511992  0.7573796

 Al 
  0.2387221  0.4819687  0.7506213

 Al 
  0.2115465  0.7653297  0.5150921

 Al 
  0.5102260  0.4858225  0.9957304

 Al 
  0.5134771  0.7621232  0.2435176

 Al 
  0.7575219  0.4996956  0.2534441

 Al 
  0.7599352  0.7432095  0.0121578

 Al 
  0.4997141  0.9919497  0.5192503

 Al 
  0.5084068  0.2342322  0.7485285

 Al 
  0.7429744  0.0008205  0.7411923

 Al 
  0.7487290  0.2587879  0.4999616

 Al 
  0.4783031  0.4999295  0.5122457

 Al 
  0.5271756  0.7463838  0.7632927

 Al 
  0.7598312  0.5065418  0.7388149

 Al 
  0.7359698  0.7464049  0.4793674

