32 
charge = 0 
 Al 
  0.9967576  0.9984221  0.9960509

 Al 
  0.0004913  0.2660883  0.2386714

 Al 
  0.2379301  0.0221066  0.2487166

 Al 
  0.2688889  0.2501794  0.9880934

 Al 
  0.4941934  0.9893260  0.9951290

 Al 
  0.5035469  0.2559552  0.2296310

 Al 
  0.7591382  0.0125439  0.2612433

 Al 
  0.7657146  0.2465893  0.0016633

 Al 
  0.9947144  0.5010544  0.9981350

 Al 
  0.9977390  0.7559613  0.2552819

 Al 
  0.2787399  0.5060542  0.2482340

 Al 
  0.2480310  0.7513131  0.9943159

 Al 
  0.9795010  0.9894250  0.5029095

 Al 
  0.0101567  0.2484827  0.7376665

 Al 
  0.2468257  0.0052436  0.7746609

 Al 
  0.2451933  0.2401812  0.4888372

 Al 
  0.0002475  0.4892641  0.5080095

 Al 
  0.9774170  0.7513947  0.7565319

 Al 
  0.2389721  0.4830491  0.7497933

 Al 
  0.2096617  0.7652096  0.5145513

 Al 
  0.5107730  0.4858819  0.9950980

 Al 
  0.5155933  0.7614413  0.2454544

 Al 
  0.7585318  0.4998725  0.2537944

 Al 
  0.7611702  0.7436538  0.0122432

 Al 
  0.4995273  0.9927875  0.5206079

 Al 
  0.5074105  0.2331234  0.7490273

 Al 
  0.7430697  0.9999950  0.7421885

 Al 
  0.7482711  0.2589773  0.4993218

 Al 
  0.4789156  0.4984407  0.5125353

 Al 
  0.5268192  0.7459532  0.7628558

 Al 
  0.7603262  0.5059019  0.7384894

 Al 
  0.7357346  0.7461252  0.4802559

