32 
charge = 0 
 Al 
  0.9960782  0.9977130  0.0004480

 Al 
  0.0036756  0.2643990  0.2368360

 Al 
  0.2368311  0.0233800  0.2507289

 Al 
  0.2687119  0.2508255  0.9878372

 Al 
  0.4950980  0.9906700  0.9948728

 Al 
  0.5007512  0.2547894  0.2291409

 Al 
  0.7579353  0.0121516  0.2607037

 Al 
  0.7640080  0.2503737  0.0024145

 Al 
  0.9934545  0.5016224  0.9958183

 Al 
  0.9989122  0.7559007  0.2542189

 Al 
  0.2769046  0.5047337  0.2491461

 Al 
  0.2478739  0.7485780  0.9942973

 Al 
  0.9787189  0.9875093  0.5029999

 Al 
  0.0097656  0.2505916  0.7347607

 Al 
  0.2446327  0.0073202  0.7727563

 Al 
  0.2465744  0.2418482  0.4879041

 Al 
  0.9994802  0.4917541  0.5069019

 Al 
  0.9797510  0.7519826  0.7543587

 Al 
  0.2398965  0.4862692  0.7477872

 Al 
  0.2057114  0.7645760  0.5131689

 Al 
  0.5123038  0.4864178  0.9932565

 Al 
  0.5204000  0.7596456  0.2502141

 Al 
  0.7608806  0.5002388  0.2545604

 Al 
  0.7641057  0.7450510  0.0123509

 Al 
  0.4987129  0.9948654  0.5234704

 Al 
  0.5049948  0.2308933  0.7502735

 Al 
  0.7437305  0.9980236  0.7450968

 Al 
  0.7470794  0.2593040  0.4977155

 Al 
  0.4808264  0.4947564  0.5132704

 Al 
  0.5254517  0.7446550  0.7616356

 Al 
  0.7612730  0.5037907  0.7379474

 Al 
  0.7354797  0.7453715  0.4831060

