32 
charge = 0 
 Al 
  0.9965064  0.9981300  0.9977848

 Al 
  0.0017462  0.2654423  0.2379041

 Al 
  0.2374623  0.0227130  0.2495458

 Al 
  0.2689124  0.2503985  0.9879251

 Al 
  0.4944829  0.9898433  0.9949693

 Al 
  0.5023774  0.2555505  0.2293488

 Al 
  0.7586902  0.0123818  0.2610960

 Al 
  0.7650686  0.2481065  0.0020271

 Al 
  0.9941649  0.5012945  0.9972167

 Al 
  0.9981795  0.7559552  0.2549045

 Al 
  0.2781038  0.5054973  0.2486189

 Al 
  0.2479692  0.7502611  0.9942775

 Al 
  0.9791805  0.9885550  0.5029231

 Al 
  0.0100911  0.2493750  0.7364450

 Al 
  0.2459730  0.0061321  0.7740260

 Al 
  0.2457255  0.2408247  0.4884214

 Al 
  0.9999381  0.4902109  0.5076345

 Al 
  0.9783031  0.7516150  0.7556668

 Al 
  0.2392926  0.4842520  0.7489778

 Al 
  0.2079402  0.7650129  0.5140030

 Al 
  0.5113596  0.4860304  0.9944025

 Al 
  0.5176080  0.7607383  0.2473826

 Al 
  0.7595020  0.5000334  0.2541211

 Al 
  0.7623769  0.7441661  0.0123063

 Al 
  0.4992587  0.9936266  0.5218492

 Al 
  0.5064267  0.2321333  0.7495260

 Al 
  0.7432602  0.9991857  0.7432837

 Al 
  0.7478009  0.2591369  0.4986795

 Al 
  0.4796161  0.4969581  0.5128298

 Al 
  0.5263527  0.7454718  0.7623868

 Al 
  0.7607557  0.5051421  0.7382258

 Al 
  0.7355725  0.7458307  0.4812868

