32 
charge = 0 
 Al 
  0.9947676  0.9968801  0.0075318

 Al 
  0.0087285  0.2614437  0.2344896

 Al 
  0.2357037  0.0235409  0.2534540

 Al 
  0.2667467  0.2525568  0.9884412

 Al 
  0.4975942  0.9928828  0.9954990

 Al 
  0.4973133  0.2520407  0.2298092

 Al 
  0.7555121  0.0116640  0.2587817

 Al 
  0.7608757  0.2560801  0.0025655

 Al 
  0.9923271  0.5022189  0.9920883

 Al 
  0.0011831  0.7554725  0.2517462

 Al 
  0.2724902  0.5032523  0.2502178

 Al 
  0.2476808  0.7437961  0.9947527

 Al 
  0.9775024  0.9864772  0.5035134

 Al 
  0.0076481  0.2530617  0.7312262

 Al 
  0.2406812  0.0094933  0.7677875

 Al 
  0.2489703  0.2449087  0.4873026

 Al 
  0.9983404  0.4963356  0.5039763

 Al 
  0.9841010  0.7531038  0.7510952

 Al 
  0.2421093  0.4926303  0.7448715

 Al 
  0.2022189  0.7626467  0.5108918

 Al 
  0.5150475  0.4883607  0.9898396

 Al 
  0.5261534  0.7565541  0.2570219

 Al 
  0.7640364  0.5004888  0.2553487

 Al 
  0.7679583  0.7479555  0.0120761

 Al 
  0.4965447  0.9978466  0.5262264

 Al 
  0.5016200  0.2291842  0.7522016

 Al 
  0.7459816  0.9953901  0.7507487

 Al 
  0.7451797  0.2592347  0.4952379

 Al 
  0.4849191  0.4891862  0.5143211

 Al 
  0.5219680  0.7420004  0.7594797

 Al 
  0.7618657  0.4991857  0.7379152

 Al 
  0.7362334  0.7441203  0.4895401

