32 
charge = 0 
 Al 
  0.9956029  0.9973430  0.0031385

 Al 
  0.0056161  0.2633001  0.2358683

 Al 
  0.2363027  0.0237278  0.2518279

 Al 
  0.2682169  0.2513749  0.9879325

 Al 
  0.4959061  0.9915190  0.9949545

 Al 
  0.4992995  0.2538649  0.2291879

 Al 
  0.7570900  0.0119425  0.2601183

 Al 
  0.7628669  0.2525939  0.0026150

 Al 
  0.9928939  0.5019021  0.9944112

 Al 
  0.9997166  0.7557893  0.2533934

 Al 
  0.2754356  0.5040753  0.2496065

 Al 
  0.2477860  0.7468096  0.9944037

 Al 
  0.9782647  0.9868088  0.5031434

 Al 
  0.0091741  0.2516521  0.7332682

 Al 
  0.2432157  0.0083127  0.7711376

 Al 
  0.2474642  0.2429434  0.4875365

 Al 
  0.9990359  0.4934149  0.5059651

 Al 
  0.9813153  0.7523860  0.7530753

 Al 
  0.2406341  0.4885117  0.7466450

 Al 
  0.2039577  0.7639746  0.5123249

 Al 
  0.5133075  0.4869982  0.9920140

 Al 
  0.5228689  0.7585157  0.2529219

 Al 
  0.7621566  0.5003874  0.2549280

 Al 
  0.7657010  0.7460596  0.0123212

 Al 
  0.4980088  0.9960534  0.5247810

 Al 
  0.5036421  0.2299688  0.7510123

 Al 
  0.7444149  0.9969457  0.7470930

 Al 
  0.7463529  0.2593733  0.4967650

 Al 
  0.4822212  0.4926031  0.5136961

 Al 
  0.5243193  0.7437305  0.7608435

 Al 
  0.7616294  0.5022140  0.7378150

 Al 
  0.7355849  0.7449012  0.4852557

