32 
charge = 0 
 Al 
  0.9957651  0.9974593  0.0022412

 Al 
  0.0049713  0.2636701  0.2361789

 Al 
  0.2364660  0.0236498  0.2514715

 Al 
  0.2684149  0.2511782  0.9878818

 Al 
  0.4956178  0.9912356  0.9949074

 Al 
  0.4997624  0.2541891  0.2291446

 Al 
  0.7573808  0.0120093  0.2603336

 Al 
  0.7632543  0.2518625  0.0025679

 Al 
  0.9930635  0.5018155  0.9948802

 Al 
  0.9994406  0.7558326  0.2536842

 Al 
  0.2759529  0.5042820  0.2494604

 Al 
  0.2478132  0.7474048  0.9943592

 Al 
  0.9784157  0.9870019  0.5030890

 Al 
  0.0094005  0.2513168  0.7337446

 Al 
  0.2436971  0.0080046  0.7717130

 Al 
  0.2471647  0.2425709  0.4876417

 Al 
  0.9991820  0.4928506  0.5062992

 Al 
  0.9807831  0.7522487  0.7534974

 Al 
  0.2403742  0.4877419  0.7470199

 Al 
  0.2044862  0.7641924  0.5126070

 Al 
  0.5129684  0.4867841  0.9924373

 Al 
  0.5220855  0.7588956  0.2520370

 Al 
  0.7617420  0.5003453  0.2548141

 Al 
  0.7651861  0.7457106  0.0123397

 Al 
  0.4982600  0.9956648  0.5243800

 Al 
  0.5040827  0.2302398  0.7507673

 Al 
  0.7441637  0.9972947  0.7464086

 Al 
  0.7465942  0.2593622  0.4970806

 Al 
  0.4817361  0.4933134  0.5135563

 Al 
  0.5247215  0.7440498  0.7611108

 Al 
  0.7615279  0.5027622  0.7378422

 Al 
  0.7355267  0.7450584  0.4845032

