32 
charge = 0 
 Al 
  0.9942800  0.9967266  0.0100218

 Al 
  0.0104376  0.2603732  0.2338090

 Al 
  0.2355366  0.0229568  0.2543055

 Al 
  0.2654980  0.2534082  0.9889139

 Al 
  0.4987513  0.9936204  0.9960608

 Al 
  0.4963937  0.2508391  0.2304775

 Al 
  0.7544899  0.0115427  0.2578053

 Al 
  0.7596864  0.2579798  0.0023353

 Al 
  0.9922170  0.5023081  0.9907406

 Al 
  0.0021150  0.7552015  0.2506274

 Al 
  0.2704928  0.5029367  0.2504913

 Al 
  0.2476536  0.7420227  0.9950510

 Al 
  0.9770420  0.9867940  0.5037956

 Al 
  0.0064551  0.2536978  0.7302708

 Al 
  0.2390674  0.0099178  0.7654757

 Al 
  0.2498441  0.2461561  0.4874090

 Al 
  0.9979555  0.4981041  0.5025593

 Al 
  0.9858250  0.7535357  0.7500656

 Al 
  0.2431018  0.4952428  0.7438951

 Al 
  0.2019306  0.7616950  0.5100094

 Al 
  0.5160858  0.4893842  0.9885426

 Al 
  0.5275877  0.7553314  0.2591728

 Al 
  0.7650054  0.5004542  0.2554713

 Al 
  0.7690164  0.7491721  0.0118002

 Al 
  0.4955386  0.9987699  0.5266460

 Al 
  0.5005705  0.2291731  0.7528810

 Al 
  0.7471326  0.9946290  0.7530803

 Al 
  0.7445324  0.2589859  0.4943728

 Al 
  0.4867296  0.4872853  0.5146131

 Al 
  0.5203208  0.7408866  0.7586592

 Al 
  0.7618026  0.4971994  0.7381565

 Al 
  0.7369041  0.7436711  0.4924843

