32 
charge = 0 
 Al 
  0.9931241  0.9970893  0.0167838

 Al 
  0.0146923  0.2574910  0.2324390

 Al 
  0.2361319  0.0186686  0.2565356

 Al 
  0.2598312  0.2567336  0.9909670

 Al 
  0.5027994  0.9953913  0.9989456

 Al 
  0.4946847  0.2468591  0.2339265

 Al 
  0.7509207  0.0113274  0.2541000

 Al 
  0.7562163  0.2628150  0.0008081

 Al 
  0.9930647  0.5020247  0.9867494

 Al 
  0.0052547  0.7538649  0.2466338

 Al 
  0.2632840  0.5027870  0.2509789

 Al 
  0.2478231  0.7368608  0.9963900

 Al 
  0.9755878  0.9903631  0.5047906

 Al 
  0.0015420  0.2548525  0.7284577

 Al 
  0.2334427  0.0100317  0.7570405

 Al 
  0.2522016  0.2504715  0.4890476

 Al 
  0.9968925  0.5033872  0.4970954

 Al 
  0.9914212  0.7547114  0.7478961

 Al 
  0.2465769  0.5038451  0.7411898

 Al 
  0.2049874  0.7581803  0.5068487

 Al 
  0.5191154  0.4935399  0.9849178

 Al 
  0.5294948  0.7509987  0.2644671

 Al 
  0.7672578  0.4998725  0.2550864

 Al 
  0.7706364  0.7531162  0.0101777

 Al 
  0.4919843  0.0007871  0.5258131

 Al 
  0.4980026  0.2313858  0.7548946

 Al 
  0.7515457  0.9931489  0.7609512

 Al 
  0.7429607  0.2572509  0.4918927

 Al 
  0.4934162  0.4821296  0.5148421

 Al 
  0.5140253  0.7372284  0.7560542

 Al 
  0.7606604  0.4903742  0.7397295

 Al 
  0.7404213  0.7424113  0.5035493

