32 
charge = 0 
 Al 
  0.9937020  0.9966982  0.0130588

 Al 
  0.0124387  0.2590664  0.2330838

 Al 
  0.2355601  0.0216462  0.2553005

 Al 
  0.2634672  0.2546706  0.9896800

 Al 
  0.5003787  0.9944656  0.9970534

 Al 
  0.4954767  0.2491993  0.2316630

 Al 
  0.7530741  0.0114289  0.2563673

 Al 
  0.7581803  0.2602161  0.0018390

 Al 
  0.9923407  0.5022994  0.9890340

 Al 
  0.0033835  0.7547461  0.2490434

 Al 
  0.2676613  0.5027202  0.2507574

 Al 
  0.2476684  0.7397839  0.9955336

 Al 
  0.9764343  0.9877914  0.5042065

 Al 
  0.0046198  0.2543203  0.7293018

 Al 
  0.2368398  0.0101777  0.7621702

 Al 
  0.2509146  0.2478702  0.4878397

 Al 
  0.9974877  0.5003775  0.5004715

 Al 
  0.9881194  0.7540728  0.7489431

 Al 
  0.2444904  0.4987649  0.7427083

 Al 
  0.2024343  0.7603138  0.5087929

 Al 
  0.5174076  0.4909373  0.9869190

 Al 
  0.5288624  0.7536446  0.2616380

 Al 
  0.7660920  0.5003007  0.2554651

 Al 
  0.7700299  0.7508106  0.0112791

 Al 
  0.4941203  0.9997810  0.5267016

 Al 
  0.4993750  0.2296730  0.7537350

 Al 
  0.7488330  0.9938369  0.7562584

 Al 
  0.7437763  0.2584563  0.4932986

 Al 
  0.4893149  0.4849809  0.5148619

 Al 
  0.5179150  0.7393792  0.7575850

 Al 
  0.7615019  0.4944557  0.7386639

 Al 
  0.7380984  0.7431154  0.4967452

