32 
charge = 0 
 Al 
  0.9935783  0.9967254  0.0137543

 Al 
  0.0128806  0.2587694  0.2329377

 Al 
  0.2356109  0.0212291  0.2555270

 Al 
  0.2629028  0.2550047  0.9898879

 Al 
  0.5007896  0.9946488  0.9973392

 Al 
  0.4952985  0.2487934  0.2320034

 Al 
  0.7527152  0.0114079  0.2559923

 Al 
  0.7578239  0.2607148  0.0016880

 Al 
  0.9924175  0.5022746  0.9886280

 Al 
  0.0037003  0.7546149  0.2486387

 Al 
  0.2669348  0.5027004  0.2508081

 Al 
  0.2476820  0.7392567  0.9956673

 Al 
  0.9762858  0.9881367  0.5043104

 Al 
  0.0041285  0.2544404  0.7291124

 Al 
  0.2362742  0.0101938  0.7613187

 Al 
  0.2511596  0.2483045  0.4879969

 Al 
  0.9973801  0.5009183  0.4999233

 Al 
  0.9886850  0.7541953  0.7487142

 Al 
  0.2448418  0.4996374  0.7424335

 Al 
  0.2027152  0.7599574  0.5084798

 Al 
  0.5177194  0.4913532  0.9865440

 Al 
  0.5290703  0.7532127  0.2621801

 Al 
  0.7663259  0.5002450  0.2554329

 Al 
  0.7702082  0.7512128  0.0111207

 Al 
  0.4937602  0.9999913  0.5266311

 Al 
  0.4991127  0.2298847  0.7539392

 Al 
  0.7492785  0.9936798  0.7570541

 Al 
  0.7436117  0.2582880  0.4930461

 Al 
  0.4899844  0.4844513  0.5148941

 Al 
  0.5172850  0.7390055  0.7573227

 Al 
  0.7613905  0.4937652  0.7388199

 Al 
  0.7384461  0.7429867  0.4978565

