32 
charge = 0 
 Al 
  0.9941253  0.9966994  0.0108151

 Al 
  0.0109710  0.2600317  0.2336072

 Al 
  0.2355156  0.0226845  0.2545691

 Al 
  0.2650277  0.2537114  0.9890921

 Al 
  0.4991523  0.9938468  0.9962848

 Al 
  0.4961326  0.2504307  0.2307448

 Al 
  0.7541409  0.0115093  0.2574576

 Al 
  0.7592990  0.2585726  0.0022301

 Al 
  0.9922194  0.5023192  0.9903025

 Al 
  0.0024306  0.7550975  0.2502388

 Al 
  0.2697998  0.5028612  0.2505680

 Al 
  0.2476511  0.7414460  0.9951636

 Al 
  0.9768885  0.9869833  0.5038958

 Al 
  0.0060195  0.2538760  0.7299960

 Al 
  0.2385179  0.0100144  0.7646688

 Al 
  0.2501238  0.2465806  0.4874858

 Al 
  0.9978330  0.4986857  0.5020556

 Al 
  0.9864017  0.7536756  0.7497562

 Al 
  0.2434434  0.4961240  0.7435857

 Al 
  0.2019628  0.7613596  0.5097099

 Al 
  0.5164262  0.4897542  0.9881219

 Al 
  0.5279739  0.7549156  0.2598337

 Al 
  0.7652987  0.5004270  0.2554874

 Al 
  0.7693146  0.7495829  0.0116863

 Al 
  0.4951896  0.9990471  0.5267128

 Al 
  0.5002500  0.2292448  0.7531001

 Al 
  0.7475422  0.9944062  0.7538711

 Al 
  0.7443307  0.2588746  0.4940956

 Al 
  0.4873595  0.4866826  0.5146923

 Al 
  0.5197391  0.7405104  0.7583870

 Al 
  0.7617494  0.4965200  0.7382642

 Al 
  0.7371714  0.7435275  0.4935176

