32 
charge = 0 
 Al 
  0.9933605  0.9968257  0.0150599

 Al 
  0.0136862  0.2582137  0.2326902

 Al 
  0.2357656  0.0202960  0.2559527

 Al 
  0.2617197  0.2556854  0.9903148

 Al 
  0.5016076  0.9949817  0.9979494

 Al 
  0.4950015  0.2479976  0.2327323

 Al 
  0.7519950  0.0113707  0.2552349

 Al 
  0.7571444  0.2616356  0.0013576

 Al 
  0.9926254  0.5021991  0.9878459

 Al 
  0.0043302  0.7543339  0.2478293

 Al 
  0.2654745  0.5027004  0.2508923

 Al 
  0.2477241  0.7382469  0.9959470

 Al 
  0.9759962  0.9889325  0.5045122

 Al 
  0.0031137  0.2546409  0.7287931

 Al 
  0.2351393  0.0101740  0.7596072

 Al 
  0.2516150  0.2491733  0.4883657

 Al 
  0.9971746  0.5019578  0.4988045

 Al 
  0.9898000  0.7544230  0.7483206

 Al 
  0.2455435  0.5013564  0.7419088

 Al 
  0.2034553  0.7592409  0.5078412

 Al 
  0.5183134  0.4922083  0.9858386

 Al 
  0.5293599  0.7523378  0.2631788

 Al 
  0.7667467  0.5001126  0.2553314

 Al 
  0.7704718  0.7520011  0.0107742

 Al 
  0.4930412  0.0003614  0.5263923

 Al 
  0.4986288  0.2303995  0.7543339

 Al 
  0.7501807  0.9934162  0.7586345

 Al 
  0.7433147  0.2579130  0.4925622

 Al 
  0.4913445  0.4834563  0.5149176

 Al 
  0.5159992  0.7382741  0.7568054

 Al 
  0.7611331  0.4923915  0.7391602

 Al 
  0.7391911  0.7427417  0.5001126

