32 
charge = 0 
 Al 
  0.9932689  0.9968987  0.0156675

 Al 
  0.0140488  0.2579575  0.2325900

 Al 
  0.2358695  0.0197824  0.2561544

 Al 
  0.2611034  0.2560331  0.9905314

 Al 
  0.5020110  0.9951302  0.9982724

 Al 
  0.4948802  0.2476090  0.2331184

 Al 
  0.7516361  0.0113559  0.2548550

 Al 
  0.7568227  0.2620563  0.0011806

 Al 
  0.9927553  0.5021484  0.9874697

 Al 
  0.0046421  0.7541842  0.2474283

 Al 
  0.2647431  0.5027177  0.2509257

 Al 
  0.2477526  0.7377667  0.9960918

 Al 
  0.9758564  0.9893805  0.5046087

 Al 
  0.0025952  0.2547225  0.7286632

 Al 
  0.2345725  0.0101406  0.7587483

 Al 
  0.2518242  0.2496077  0.4885773

 Al 
  0.9970769  0.5024528  0.4982377

 Al 
  0.9903483  0.7545270  0.7481560

 Al 
  0.2458913  0.5022004  0.7416601

 Al 
  0.2039107  0.7588845  0.5075157

 Al 
  0.5185931  0.4926476  0.9855119

 Al 
  0.5294441  0.7518947  0.2636355

 Al 
  0.7669336  0.5000384  0.2552621

 Al 
  0.7705572  0.7523823  0.0105849

 Al 
  0.4926848  0.0005198  0.5262277

 Al 
  0.4984073  0.2307015  0.7545245

 Al 
  0.7506349  0.9933097  0.7594154

 Al 
  0.7431835  0.2577051  0.4923308

 Al 
  0.4920313  0.4829909  0.5149077

 Al 
  0.5153470  0.7379164  0.7565517

 Al 
  0.7609858  0.4917120  0.7393421

 Al 
  0.7395871  0.7426266  0.5012537

