32 
charge = 0 
 Al 
  0.9930053  0.9976536  0.0186092

 Al 
  0.0156403  0.2567398  0.2323437

 Al 
  0.2368596  0.0161341  0.2572274

 Al 
  0.2571729  0.2581506  0.9918135

 Al 
  0.5042758  0.9957774  0.0003737

 Al 
  0.4944656  0.2454891  0.2356616

 Al 
  0.7495198  0.0112717  0.2526434

 Al 
  0.7551619  0.2639968  0.0000149

 Al 
  0.9938642  0.5016880  0.9854463

 Al 
  0.0064242  0.7531545  0.2451203

 Al 
  0.2604203  0.5030395  0.2510334

 Al 
  0.2480310  0.7352817  0.9970125

 Al 
  0.9751040  0.9926316  0.5050802

 Al 
  0.9994072  0.2550010  0.7282585

 Al 
  0.2312262  0.0096765  0.7536991

 Al 
  0.2527870  0.2521744  0.4901614

 Al 
  0.9965658  0.5050134  0.4948171

 Al 
  0.9934681  0.7549824  0.7476400

 Al 
  0.2478875  0.5069204  0.7403495

 Al 
  0.2077533  0.7568400  0.5054564

 Al 
  0.5199891  0.4953690  0.9839884

 Al 
  0.5291731  0.7491696  0.2658358

 Al 
  0.7677169  0.4994901  0.2545901

 Al 
  0.7704322  0.7544342  0.0092582

 Al 
  0.4906477  0.0011200  0.5246758

 Al 
  0.4973232  0.2330293  0.7555876

 Al 
  0.7533303  0.9930239  0.7638855

 Al 
  0.7426724  0.2561977  0.4911094

 Al 
  0.4962007  0.4806878  0.5145216

 Al 
  0.5113484  0.7359846  0.7550913

 Al 
  0.7599017  0.4878298  0.7405623

 Al 
  0.7422244  0.7420499  0.5081345

