32 
charge = 0 
 Al 
  0.9930721  0.9972081  0.0172925

 Al 
  0.0149708  0.2572806  0.2323895

 Al 
  0.2362890  0.0180709  0.2567175

 Al 
  0.2591790  0.2570875  0.9911836

 Al 
  0.5031830  0.9955052  0.9992934

 Al 
  0.4946104  0.2464989  0.2343461

 Al 
  0.7505668  0.0113138  0.2537275

 Al 
  0.7559316  0.2631528  0.0006151

 Al 
  0.9932429  0.5019504  0.9864066

 Al 
  0.0055554  0.7536966  0.2462452

 Al 
  0.2625600  0.5028365  0.2509987

 Al 
  0.2478677  0.7364363  0.9965435

 Al 
  0.9754591  0.9908953  0.5048723

 Al 
  0.0010099  0.2549032  0.7283823

 Al 
  0.2328820  0.0099587  0.7561940

 Al 
  0.2523699  0.2509022  0.4893050

 Al 
  0.9968059  0.5038241  0.4965224

 Al 
  0.9919447  0.7547918  0.7477996

 Al 
  0.2469123  0.5046421  0.7409670

 Al 
  0.2056049  0.7578350  0.5065083

 Al 
  0.5193567  0.4939929  0.9846517

 Al 
  0.5294651  0.7505458  0.2648458

 Al 
  0.7673964  0.4997834  0.2549800

 Al 
  0.7706302  0.7534664  0.0099611

 Al 
  0.4916403  0.0008948  0.5255656

 Al 
  0.4978169  0.2317658  0.7550740

 Al 
  0.7519974  0.9930919  0.7617036

 Al 
  0.7428679  0.2570046  0.4916848

 Al 
  0.4941117  0.4817336  0.5147864

 Al 
  0.5133595  0.7368992  0.7558091

 Al 
  0.7604834  0.4897196  0.7399312

 Al 
  0.7408569  0.7423123  0.5047003

