32 
charge = 0 
 Al 
  0.9930387  0.9980261  0.0193109

 Al 
  0.0159448  0.2564539  0.2324043

 Al 
  0.2373199  0.0147357  0.2575442

 Al 
  0.2558079  0.2588585  0.9922120

 Al 
  0.5049490  0.9959037  0.0011126

 Al 
  0.4944260  0.2448802  0.2365762

 Al 
  0.7488416  0.0112383  0.2519566

 Al 
  0.7547151  0.2644176  0.9996065

 Al 
  0.9943468  0.5014814  0.9848634

 Al 
  0.0069724  0.7527672  0.2444124

 Al 
  0.2590293  0.5032115  0.2510383

 Al 
  0.2481696  0.7346146  0.9973306

 Al 
  0.9748948  0.9938877  0.5051767

 Al 
  0.9983441  0.2550295  0.7282573

 Al 
  0.2301532  0.0094451  0.7520865

 Al 
  0.2529887  0.2530073  0.4907925

 Al 
  0.9964222  0.5056965  0.4937020

 Al 
  0.9944409  0.7550629  0.7476387

 Al 
  0.2485050  0.5083300  0.7399782

 Al 
  0.2094191  0.7562200  0.5047287

 Al 
  0.5203319  0.4962923  0.9836667

 Al 
  0.5288241  0.7482377  0.2663903

 Al 
  0.7678518  0.4992785  0.2542721

 Al 
  0.7701574  0.7550047  0.0087508

 Al 
  0.4900215  0.0011905  0.5239728

 Al 
  0.4970398  0.2339624  0.7559118

 Al 
  0.7541891  0.9930597  0.7652666

 Al 
  0.7426093  0.2556012  0.4907641

 Al 
  0.4975892  0.4801124  0.5142629

 Al 
  0.5100020  0.7354463  0.7546235

 Al 
  0.7594760  0.4866405  0.7409967

 Al 
  0.7431773  0.7419039  0.5103918

