32 
charge = 0 
 Al 
  0.9935461  0.9994852  0.0205819

 Al 
  0.0162071  0.2559118  0.2330454

 Al 
  0.2390587  0.0101096  0.2584204

 Al 
  0.2516682  0.2609401  0.9932330

 Al 
  0.5066482  0.9960497  0.0033476

 Al 
  0.4945176  0.2433976  0.2394560

 Al 
  0.7469110  0.0110787  0.2501287

 Al 
  0.7536842  0.2650129  0.9984209

 Al 
  0.9960769  0.5007500  0.9833981

 Al 
  0.0084216  0.7514838  0.2425288

 Al 
  0.2550715  0.5038488  0.2509764

 Al 
  0.2487439  0.7331283  0.9982946

 Al 
  0.9744332  0.9979840  0.5052126

 Al 
  0.9952651  0.2549837  0.7286137

 Al 
  0.2271274  0.0086011  0.7475373

 Al 
  0.2532214  0.2554193  0.4929385

 Al 
  0.9960819  0.5072261  0.4905512

 Al 
  0.9971845  0.7550827  0.7480867

 Al 
  0.2501658  0.5119709  0.7390290

 Al 
  0.2154336  0.7546161  0.5024231

 Al 
  0.5209507  0.4990607  0.9833399

 Al 
  0.5271311  0.7453728  0.2676551

 Al 
  0.7678853  0.4985941  0.2530432

 Al 
  0.7686959  0.7562992  0.0070850

 Al 
  0.4883434  0.0010544  0.5214333

 Al 
  0.4963381  0.2370712  0.7568041

 Al 
  0.7565591  0.9935449  0.7689966

 Al 
  0.7427405  0.2535592  0.4899077

 Al 
  0.5016905  0.4789639  0.5130761

 Al 
  0.5059675  0.7342718  0.7532300

 Al 
  0.7580516  0.4834959  0.7422949

 Al 
  0.7461759  0.7416316  0.5169088

