32 
charge = 0 
 Al 
  0.9942404  0.0007289  0.0207576

 Al 
  0.0158705  0.2557621  0.2338795

 Al 
  0.2404930  0.0067361  0.2589649

 Al 
  0.2489097  0.2622704  0.9937293

 Al 
  0.5074798  0.9959668  0.0048030

 Al 
  0.4947057  0.2427120  0.2414707

 Al 
  0.7457292  0.0108868  0.2491374

 Al 
  0.7532226  0.2648631  0.9977167

 Al 
  0.9974358  0.5002005  0.9826531

 Al 
  0.0091827  0.7505433  0.2414893

 Al 
  0.2526273  0.5043278  0.2508762

 Al 
  0.2492810  0.7325776  0.9989345

 Al 
  0.9742859  0.0008811  0.5049787

 Al 
  0.9933667  0.2548723  0.7291384

 Al 
  0.2253082  0.0079476  0.7447577

 Al 
  0.2530642  0.2569662  0.4945461

 Al 
  0.9959445  0.5078301  0.4886714

 Al 
  0.9989159  0.7549069  0.7487117

 Al 
  0.2510928  0.5138681  0.7385030

 Al 
  0.2202341  0.7537721  0.5007896

 Al 
  0.5210212  0.5008910  0.9837013

 Al 
  0.5255272  0.7434001  0.2682590

 Al 
  0.7675981  0.4981214  0.2520011

 Al 
  0.7672392  0.7567744  0.0058871

 Al 
  0.4874066  0.0006943  0.5194421

 Al 
  0.4959507  0.2393112  0.7573375

 Al 
  0.7579291  0.9941810  0.7711042

 Al 
  0.7430734  0.2519950  0.4894733

 Al 
  0.5043500  0.4786780  0.5119252

 Al 
  0.5032771  0.7339303  0.7522697

 Al 
  0.7569898  0.4818004  0.7431179

 Al 
  0.7482488  0.7416007  0.5209742

