32 
charge = 0 
 Al 
  0.9952292  0.0021781  0.0204309

 Al 
  0.0151589  0.2557287  0.2350676

 Al 
  0.2421279  0.0031917  0.2594834

 Al 
  0.2461809  0.2635228  0.9940523

 Al 
  0.5080392  0.9957564  0.0061952

 Al 
  0.4949532  0.2422813  0.2435486

 Al 
  0.7446500  0.0105873  0.2483441

 Al 
  0.7529095  0.2642877  0.9971251

 Al 
  0.9989283  0.4996349  0.9820912

 Al 
  0.0097260  0.7495495  0.2406193

 Al 
  0.2503539  0.5048042  0.2507339

 Al 
  0.2499678  0.7323870  0.9995644

 Al 
  0.9742872  0.0038303  0.5044961

 Al 
  0.9916390  0.2547126  0.7298896

 Al 
  0.2236758  0.0072459  0.7421860

 Al 
  0.2526583  0.2584736  0.4962725

 Al 
  0.9958975  0.5081295  0.4870093

 Al 
  0.0006175  0.7545790  0.7495471

 Al 
  0.2518588  0.5153198  0.7380377

 Al 
  0.2256237  0.7530914  0.4990929

 Al 
  0.5208220  0.5027028  0.9845614

 Al 
  0.5235855  0.7413705  0.2687379

 Al 
  0.7670586  0.4976585  0.2507883

 Al 
  0.7654386  0.7569081  0.0046520

 Al 
  0.4866269  0.0001473  0.5172578

 Al 
  0.4955968  0.2416217  0.7578239

 Al 
  0.7591097  0.9950757  0.7728801

 Al 
  0.7435771  0.2502809  0.4891392

 Al 
  0.5069328  0.4787671  0.5104648

 Al 
  0.5005779  0.7339996  0.7512561

 Al 
  0.7558388  0.4804676  0.7438815

 Al 
  0.7503527  0.7417083  0.5247698

