32 
charge = 0 
 Al 
  0.9934174  0.9992067  0.0204557

 Al 
  0.0162294  0.2559725  0.2328895

 Al 
  0.2387345  0.0109203  0.2582793

 Al 
  0.2523588  0.2605997  0.9930833

 Al 
  0.5064019  0.9960485  0.0029776

 Al 
  0.4944842  0.2436068  0.2389634

 Al 
  0.7472204  0.0111145  0.2504059

 Al 
  0.7538265  0.2649819  0.9986102

 Al 
  0.9957613  0.5008811  0.9836134

 Al 
  0.0082026  0.7517091  0.2428172

 Al 
  0.2557076  0.5037337  0.2509938

 Al 
  0.2486300  0.7333226  0.9981338

 Al 
  0.9744914  0.9972749  0.5052374

 Al 
  0.9957613  0.2550022  0.7285184

 Al 
  0.2276088  0.0087545  0.7482637

 Al 
  0.2532226  0.2550257  0.4925573

 Al 
  0.9961289  0.5070256  0.4910512

 Al 
  0.9967427  0.7551025  0.7479692

 Al 
  0.2499109  0.5114289  0.7391726

 Al 
  0.2143297  0.7548550  0.5028204

 Al 
  0.5208901  0.4986016  0.9833251

 Al 
  0.5274751  0.7458579  0.2674781

 Al 
  0.7679187  0.4987117  0.2532758

 Al 
  0.7690028  0.7561296  0.0073759

 Al 
  0.4886008  0.0011113  0.5218974

 Al 
  0.4964432  0.2365279  0.7566630

 Al 
  0.7561891  0.9934248  0.7684211

 Al 
  0.7426860  0.2539255  0.4900327

 Al 
  0.5010148  0.4790951  0.5133174

 Al 
  0.5066395  0.7344166  0.7534639

 Al 
  0.7583028  0.4839723  0.7420821

 Al 
  0.7456648  0.7416588  0.5158544

