32 
charge = 0 
 Al 
  0.9944594  0.0010730  0.0207217

 Al 
  0.0157269  0.2557448  0.2341431

 Al 
  0.2408841  0.0058636  0.2590973

 Al 
  0.2482229  0.2625922  0.9938270

 Al 
  0.5076469  0.9959259  0.0051582

 Al 
  0.4947639  0.2425796  0.2419843

 Al 
  0.7454482  0.0108237  0.2489196

 Al 
  0.7531323  0.2647592  0.9975558

 Al 
  0.9977984  0.5000594  0.9824947

 Al 
  0.0093411  0.7502995  0.2412554

 Al 
  0.2520432  0.5044490  0.2508453

 Al 
  0.2494381  0.7324947  0.9990929

 Al 
  0.9742711  0.0016163  0.5048834

 Al 
  0.9929174  0.2548376  0.7293042

 Al 
  0.2248812  0.0077756  0.7440956

 Al 
  0.2529850  0.2573462  0.4949681

 Al 
  0.9959235  0.5079328  0.4882345

 Al 
  0.9993429  0.7548389  0.7489023

 Al 
  0.2512994  0.5142728  0.7383818

 Al 
  0.2215274  0.7535877  0.5003700

 Al 
  0.5209965  0.5013452  0.9838684

 Al 
  0.5250718  0.7428989  0.2683889

 Al 
  0.7674868  0.4980038  0.2517140

 Al 
  0.7668197  0.7568412  0.0055814

 Al 
  0.4871962  0.0005742  0.5189124

 Al 
  0.4958604  0.2398842  0.7574625

 Al 
  0.7582434  0.9943802  0.7715806

 Al 
  0.7431835  0.2515804  0.4893805

 Al 
  0.5050035  0.4786644  0.5115898

 Al 
  0.5026026  0.7339080  0.7520222

 Al 
  0.7567101  0.4814316  0.7433147

 Al 
  0.7487736  0.7416130  0.5219494

