32 
charge = 0 
 Al 
  0.9936921  0.9997760  0.0206747

 Al 
  0.0161601  0.2558611  0.2332224

 Al 
  0.2393978  0.0092854  0.2585590

 Al 
  0.2509764  0.2612779  0.9933729

 Al 
  0.5068808  0.9960410  0.0037164

 Al 
  0.4945572  0.2432021  0.2399535

 Al 
  0.7466066  0.0110391  0.2498626

 Al 
  0.7535543  0.2650153  0.9982365

 Al 
  0.9964024  0.5006163  0.9831939

 Al 
  0.0086295  0.7512549  0.2422529

 Al 
  0.2544453  0.5039664  0.2509554

 Al 
  0.2488652  0.7329575  0.9984543

 Al 
  0.9743837  0.9986993  0.5051755

 Al 
  0.9947762  0.2549614  0.7287238

 Al 
  0.2266571  0.0084427  0.7468232

 Al 
  0.2532065  0.2558104  0.4933283

 Al 
  0.9960398  0.5074080  0.4900624

 Al 
  0.9976226  0.7550530  0.7482216

 Al 
  0.2504121  0.5124858  0.7388904

 Al 
  0.2165759  0.7543884  0.5020222

 Al 
  0.5209940  0.4995198  0.9833845

 Al 
  0.5267635  0.7448852  0.2678197

 Al 
  0.7678370  0.4984766  0.2527994

 Al 
  0.7683667  0.7564489  0.0067917

 Al 
  0.4880959  0.0009839  0.5209556

 Al 
  0.4962366  0.2376219  0.7569415

 Al 
  0.7569180  0.9936798  0.7695535

 Al 
  0.7428060  0.2531830  0.4897901

 Al 
  0.5023625  0.4788575  0.5128162

 Al 
  0.5052955  0.7341505  0.7529937

 Al 
  0.7577942  0.4830392  0.7425053

 Al 
  0.7466895  0.7416118  0.5179484

