32 
charge = 0 
 Al 
  0.9946983  0.0014294  0.0206549

 Al 
  0.0155599  0.2557336  0.2344290

 Al 
  0.2412876  0.0049812  0.2592285

 Al 
  0.2475397  0.2629078  0.9939137

 Al 
  0.5077954  0.9958764  0.0055084

 Al 
  0.4948245  0.2424645  0.2425028

 Al 
  0.7451747  0.0107532  0.2487154

 Al 
  0.7530494  0.2646280  0.9974036

 Al 
  0.9981684  0.4999171  0.9823486

 Al 
  0.0094847  0.7500520  0.2410326

 Al 
  0.2514677  0.5045691  0.2508106

 Al 
  0.2496040  0.7324365  0.9992513

 Al 
  0.9742661  0.0023538  0.5047708

 Al 
  0.9924793  0.2547980  0.7294849

 Al 
  0.2244666  0.0076011  0.7434459

 Al 
  0.2528922  0.2577249  0.4953963

 Al 
  0.9959086  0.5080169  0.4878112

 Al 
  0.9997673  0.7547621  0.7491052

 Al 
  0.2514962  0.5146503  0.7382630

 Al 
  0.2228578  0.7534132  0.4999480

 Al 
  0.5209544  0.5017994  0.9840676

 Al 
  0.5245953  0.7423927  0.2685115

 Al 
  0.7673605  0.4978875  0.2514158

 Al 
  0.7663791  0.7568858  0.0052733

 Al 
  0.4869957  0.0004430  0.5183716

 Al 
  0.4957712  0.2404609  0.7575863

 Al 
  0.7585441  0.9945956  0.7720348

 Al 
  0.7433048  0.2511559  0.4892938

 Al 
  0.5056519  0.4786756  0.5112346

 Al 
  0.5019281  0.7339104  0.7517710

 Al 
  0.7564254  0.4810863  0.7435077

 Al 
  0.7492995  0.7416353  0.5229085

