32 
charge = 0 
 Al 
  0.9968739  0.0042300  0.0193716

 Al 
  0.0137877  0.2557757  0.2370737

 Al 
  0.2444099  0.9986300  0.2600626

 Al 
  0.2428778  0.2649250  0.9941835

 Al 
  0.5083065  0.9953369  0.0077929

 Al 
  0.4952874  0.2421130  0.2462069

 Al 
  0.7434867  0.0099958  0.2476375

 Al 
  0.7526818  0.2629919  0.9965992

 Al 
  0.0009121  0.4989604  0.9816420

 Al 
  0.0100243  0.7482736  0.2397629

 Al 
  0.2477872  0.5053228  0.2504987

 Al 
  0.2510643  0.7326865  0.0003267

 Al 
  0.9745421  0.0074724  0.5034974

 Al 
  0.9897827  0.2544552  0.7311556

 Al 
  0.2219544  0.0063351  0.7392889

 Al 
  0.2518130  0.2603039  0.4985533

 Al 
  0.9959853  0.5081221  0.4852916

 Al 
  0.0027499  0.7539577  0.7508316

 Al 
  0.2525741  0.5164744  0.7375340

 Al 
  0.2330825  0.7524083  0.4969247

 Al 
  0.5201995  0.5049218  0.9863534

 Al 
  0.5207539  0.7387580  0.2692082

 Al 
  0.7660314  0.4971326  0.2490545

 Al 
  0.7627828  0.7565677  0.0030964

 Al 
  0.4859128  0.9992500  0.5143310

 Al 
  0.4951648  0.2445225  0.7583672

 Al 
  0.7602817  0.9965497  0.7745953

 Al 
  0.7443951  0.2479729  0.4888545

 Al 
  0.5100255  0.4793971  0.5081964

 Al 
  0.4972229  0.7347198  0.7499035

 Al 
  0.7542733  0.4793748  0.7447366

 Al 
  0.7529739  0.7420610  0.5290691

