32 
charge = 0 
 Al 
  0.9976511  0.0051049  0.0187652

 Al 
  0.0131070  0.2558029  0.2380352

 Al 
  0.2453777  0.9968021  0.2602582

 Al 
  0.2416168  0.2654151  0.9941488

 Al 
  0.5082657  0.9951277  0.0083684

 Al 
  0.4954136  0.2421650  0.2472749

 Al 
  0.7430932  0.0096765  0.2474407

 Al 
  0.7526298  0.2623088  0.9964705

 Al 
  0.0017153  0.4987191  0.9815405

 Al 
  0.0100032  0.7477674  0.2394919

 Al 
  0.2468615  0.5054874  0.2503874

 Al 
  0.2515791  0.7329810  0.0006200

 Al 
  0.9747376  0.0088795  0.5029689

 Al 
  0.9891515  0.2543389  0.7317620

 Al 
  0.2213838  0.0059712  0.7382432

 Al 
  0.2513762  0.2610131  0.4994876

 Al 
  0.9960707  0.5080145  0.4847334

 Al 
  0.0036075  0.7536434  0.7514046

 Al 
  0.2527783  0.5167195  0.7373571

 Al 
  0.2362420  0.7521657  0.4960596

 Al 
  0.5198344  0.5057794  0.9872865

 Al 
  0.5195213  0.7376974  0.2693592

 Al 
  0.7655128  0.4969482  0.2483021

 Al 
  0.7616232  0.7562732  0.0024826

 Al 
  0.4857210  0.9988416  0.5131268

 Al 
  0.4949854  0.2456648  0.7585639

 Al 
  0.7606443  0.9972390  0.7751126

 Al 
  0.7447626  0.2470187  0.4887827

 Al 
  0.5112111  0.4798042  0.5071556

 Al 
  0.4959074  0.7352161  0.7493391

 Al 
  0.7536124  0.4791359  0.7450460

 Al 
  0.7539998  0.7422739  0.5306272

