32 
charge = 0 
 Al 
  0.9989345  0.0064514  0.0176872

 Al 
  0.0119648  0.2558339  0.2396379

 Al 
  0.2468665  0.9940981  0.2604933

 Al 
  0.2398248  0.2660549  0.9940040

 Al 
  0.5080343  0.9947837  0.0091468

 Al 
  0.4955807  0.2423717  0.2488627

 Al 
  0.7425932  0.0090936  0.2472353

 Al 
  0.7525803  0.2611257  0.9963777

 Al 
  0.0028996  0.4984060  0.9814687

 Al 
  0.0098102  0.7470323  0.2391577

 Al 
  0.2455980  0.5056668  0.2501968

 Al 
  0.2524269  0.7336134  0.0010433

 Al 
  0.9751448  0.0108980  0.5020383

 Al 
  0.9883434  0.2541570  0.7327744

 Al 
  0.2206784  0.0054403  0.7368113

 Al 
  0.2506287  0.2620427  0.5008923

 Al 
  0.9962527  0.5077570  0.4840503

 Al 
  0.0048896  0.7531088  0.7523093

 Al 
  0.2529961  0.5168457  0.7371207

 Al 
  0.2411044  0.7518130  0.4947837

 Al 
  0.5191674  0.5070170  0.9889003

 Al 
  0.5175981  0.7361059  0.2695448

 Al 
  0.7646268  0.4967068  0.2471264

 Al 
  0.7598126  0.7556668  0.0015767

 Al 
  0.4855515  0.9981969  0.5113187

 Al 
  0.4946995  0.2473355  0.7588362

 Al 
  0.7610638  0.9983578  0.7756955

 Al 
  0.7453332  0.2455856  0.4887221

 Al 
  0.5129214  0.4805715  0.5054663

 Al 
  0.4939904  0.7361876  0.7484766

 Al 
  0.7525902  0.4790010  0.7454779

 Al 
  0.7554923  0.7426736  0.5327645

