32 
charge = 0 
 Al 
  0.9965101  0.0038018  0.0196376

 Al 
  0.0141020  0.2557621  0.2366257

 Al 
  0.2439359  0.9995471  0.2599550

 Al 
  0.2435238  0.2646626  0.9941822

 Al 
  0.5082941  0.9954322  0.0074897

 Al 
  0.4952205  0.2421130  0.2456735

 Al 
  0.7437008  0.0101369  0.2477538

 Al 
  0.7527152  0.2633001  0.9966821

 Al 
  0.0005099  0.4990879  0.9817101

 Al 
  0.0100020  0.7485298  0.2399139

 Al 
  0.2482736  0.5052299  0.2505520

 Al 
  0.2508242  0.7325776  0.0001770

 Al 
  0.9744654  0.0067546  0.5037337

 Al 
  0.9901230  0.2545109  0.7308735

 Al 
  0.2222662  0.0065170  0.7398371

 Al 
  0.2520098  0.2599438  0.4980892

 Al 
  0.9959532  0.5081543  0.4855997

 Al 
  0.0023229  0.7541000  0.7505569

 Al 
  0.2524541  0.5163049  0.7376281

 Al 
  0.2315356  0.7525333  0.4973590

 Al 
  0.5203567  0.5044849  0.9859326

 Al 
  0.5213517  0.7392864  0.2691241

 Al 
  0.7662678  0.4972316  0.2494183

 Al 
  0.7633446  0.7566816  0.0034070

 Al 
  0.4860292  0.9994456  0.5149275

 Al 
  0.4952527  0.2439458  0.7582644

 Al 
  0.7600762  0.9962254  0.7742995

 Al 
  0.7442181  0.2484456  0.4888991

 Al 
  0.5094216  0.4792263  0.5086889

 Al 
  0.4978887  0.7345156  0.7501807

 Al 
  0.7545975  0.4795394  0.7445745

 Al 
  0.7524541  0.7419707  0.5282536

