32 
charge = 0 
 Al 
  0.9984926  0.0059997  0.0180672

 Al 
  0.0123608  0.2558264  0.2390835

 Al 
  0.2463678  0.9949916  0.2604240

 Al 
  0.2404077  0.2658557  0.9940647

 Al 
  0.5081345  0.9949025  0.0088993

 Al 
  0.4955287  0.2422863  0.2483367

 Al 
  0.7427466  0.0093015  0.2472922

 Al 
  0.7525939  0.2615390  0.9963950

 Al 
  0.0025098  0.4985025  0.9814824

 Al 
  0.0098968  0.7472736  0.2392592

 Al 
  0.2460027  0.5056173  0.2502636

 Al 
  0.2521348  0.7333771  0.0009047

 Al 
  0.9749926  0.0102396  0.5023662

 Al 
  0.9885934  0.2542176  0.7324241

 Al 
  0.2208925  0.0056148  0.7372692

 Al 
  0.2508898  0.2617049  0.5004257

 Al 
  0.9961846  0.5078548  0.4842557

 Al 
  0.0044639  0.7532956  0.7520024

 Al 
  0.2529355  0.5168358  0.7371949

 Al 
  0.2394708  0.7519306  0.4952044

 Al 
  0.5194062  0.5066123  0.9883360

 Al 
  0.5182479  0.7366356  0.2694891

 Al 
  0.7649361  0.4967823  0.2475236

 Al 
  0.7604228  0.7558908  0.0018761

 Al 
  0.4855923  0.9984147  0.5119202

 Al 
  0.4947973  0.2467861  0.7587483

 Al 
  0.7609413  0.9979753  0.7755272

 Al 
  0.7451413  0.2460621  0.4887357

 Al 
  0.5123608  0.4802955  0.5060455

 Al 
  0.4946203  0.7358336  0.7487662

 Al 
  0.7529343  0.4790159  0.7453381

 Al 
  0.7550022  0.7425301  0.5320801

