32 
charge = 0 
 Al 
  0.0008292  0.0082558  0.0159819

 Al 
  0.0102557  0.2558302  0.2420313

 Al 
  0.2488751  0.9906465  0.2606690

 Al 
  0.2376813  0.2666947  0.9936525

 Al 
  0.5074019  0.9942886  0.0099921

 Al 
  0.4957415  0.2428778  0.2509096

 Al 
  0.7421180  0.0081135  0.2471202

 Al 
  0.7525420  0.2593077  0.9964581

 Al 
  0.0043822  0.4981152  0.9815306

 Al 
  0.0092335  0.7461240  0.2388520

 Al 
  0.2441723  0.5057534  0.2499010

 Al 
  0.2536805  0.7348064  0.0015729

 Al 
  0.9759257  0.0133483  0.5005507

 Al 
  0.9875415  0.2539156  0.7342978

 Al 
  0.2200473  0.0047782  0.7351889

 Al 
  0.2494889  0.2633261  0.5027338

 Al 
  0.9965868  0.5072670  0.4834513

 Al 
  0.0065690  0.7522883  0.7535728

 Al 
  0.2531174  0.5165598  0.7368682

 Al 
  0.2476808  0.7513143  0.4931662

 Al 
  0.5180635  0.5085305  0.9914002

 Al 
  0.5149609  0.7340144  0.2696995

 Al 
  0.7632667  0.4964606  0.2454990

 Al 
  0.7573313  0.7545728  0.0004084

 Al 
  0.4855713  0.9973207  0.5089562

 Al 
  0.4942763  0.2494468  0.7591542

 Al 
  0.7613744  0.9999604  0.7761027

 Al 
  0.7460905  0.2437243  0.4887332

 Al 
  0.5150512  0.4818586  0.5030172

 Al 
  0.4915945  0.7378942  0.7473269

 Al 
  0.7511893  0.4792560  0.7459965

 Al 
  0.7573585  0.7433518  0.5352049

