32 
charge = 0 
 Al 
  0.0003391  0.0078065  0.0164324

 Al 
  0.0107000  0.2558376  0.2414088

 Al 
  0.2483738  0.9914880  0.2606430

 Al 
  0.2381875  0.2665598  0.9937565

 Al 
  0.5075949  0.9944149  0.0098027

 Al 
  0.4957094  0.2427268  0.2504084

 Al 
  0.7422145  0.0083808  0.2471326

 Al 
  0.7525506  0.2597842  0.9964148

 Al 
  0.0040258  0.4981721  0.9814984

 Al 
  0.0094117  0.7463405  0.2389139

 Al 
  0.2445003  0.5057497  0.2499790

 Al 
  0.2533550  0.7344711  0.0014455

 Al 
  0.9757042  0.0127667  0.5009467

 Al 
  0.9877110  0.2539738  0.7339005

 Al 
  0.2201698  0.0049366  0.7355626

 Al 
  0.2497871  0.2630154  0.5022796

 Al 
  0.9964940  0.5074031  0.4835664

 Al 
  0.0061556  0.7525036  0.7532523

 Al 
  0.2531050  0.5166786  0.7369239

 Al 
  0.2460361  0.7514455  0.4935585

 Al 
  0.5183617  0.5081692  0.9907418

 Al 
  0.5156230  0.7345317  0.2696723

 Al 
  0.7636243  0.4965138  0.2459099

 Al 
  0.7579538  0.7548748  0.0006967

 Al 
  0.4855378  0.9975385  0.5095379

 Al 
  0.4943864  0.2489332  0.7590800

 Al 
  0.7613237  0.9995520  0.7760408

 Al 
  0.7459049  0.2441797  0.4887196

 Al 
  0.5145364  0.4815108  0.5036471

 Al 
  0.4921724  0.7374251  0.7476127

 Al 
  0.7515420  0.4791458  0.7458727

 Al 
  0.7569081  0.7431674  0.5346418

