32 
charge = 0 
 Al 
  0.9998589  0.0073561  0.0168680

 Al 
  0.0111331  0.2558413  0.2408024

 Al 
  0.2478714  0.9923444  0.2606034

 Al 
  0.2387134  0.2664076  0.9938493

 Al 
  0.5077645  0.9945399  0.0095985

 Al 
  0.4956710  0.2425920  0.2498985

 Al 
  0.7423271  0.0086332  0.2471561

 Al 
  0.7525593  0.2602470  0.9963876

 Al 
  0.0036595  0.4982402  0.9814774

 Al 
  0.0095676  0.7465645  0.2389857

 Al 
  0.2448468  0.5057336  0.2500545

 Al 
  0.2530382  0.7341604  0.0013143

 Al 
  0.9755000  0.0121628  0.5013279

 Al 
  0.9879016  0.2540345  0.7335132

 Al 
  0.2203158  0.0051012  0.7359574

 Al 
  0.2500767  0.2626986  0.5018205

 Al 
  0.9964074  0.5075306  0.4837050

 Al 
  0.0057361  0.7527127  0.7529355

 Al 
  0.2530803  0.5167665  0.7369846

 Al 
  0.2443901  0.7515717  0.4939595

 Al 
  0.5186451  0.5077966  0.9901057

 Al 
  0.5162851  0.7350527  0.2696364

 Al 
  0.7639708  0.4965720  0.2463183

 Al 
  0.7585763  0.7551582  0.0009876

 Al 
  0.4855242  0.9977588  0.5101257

 Al 
  0.4944941  0.2484110  0.7590020

 Al 
  0.7612556  0.9991486  0.7759517

 Al 
  0.7457156  0.2446426  0.4887134

 Al 
  0.5140092  0.4811791  0.5042659

 Al 
  0.4927652  0.7369846  0.7478999

 Al 
  0.7518935  0.4790666  0.7457453

 Al 
  0.7564452  0.7429917  0.5340466

