32 
charge = 0 
 Al 
  0.0093089  0.0143421  0.0076593

 Al 
  0.0024429  0.2548871  0.2527635

 Al 
  0.2559935  0.9802770  0.2590825

 Al 
  0.2331617  0.2663767  0.9912022

 Al 
  0.5014789  0.9925771  0.0109141

 Al 
  0.4952787  0.2468974  0.2573338

 Al 
  0.7427182  0.0017338  0.2480013

 Al 
  0.7520878  0.2508279  0.9993045

 Al 
  0.0078486  0.4989666  0.9837322

 Al 
  0.0034590  0.7439644  0.2391107

 Al 
  0.2415437  0.5039280  0.2480558

 Al 
  0.2593461  0.7428840  0.0032585

 Al 
  0.9821828  0.0188048  0.4925313

 Al 
  0.9874771  0.2535209  0.7417479

 Al 
  0.2215905  0.0030172  0.7321246

 Al 
  0.2443827  0.2667368  0.5086741

 Al 
  0.9984085  0.5046805  0.4847718

 Al 
  0.0120576  0.7482575  0.7586196

 Al 
  0.2521051  0.5110415  0.7368261

 Al 
  0.2714012  0.7476895  0.4886726

 Al 
  0.5113781  0.5120093  0.0034157

 Al 
  0.5053970  0.7271237  0.2684384

 Al 
  0.7568759  0.4963207  0.2391565

 Al 
  0.7482984  0.7480149  0.9960188

 Al 
  0.4889498  0.9948839  0.5010878

 Al 
  0.4921044  0.2560034  0.7599748

 Al 
  0.7597805  0.0061086  0.7735966

 Al 
  0.7480050  0.2382568  0.4900673

 Al 
  0.5213343  0.4890859  0.4926489

 Al 
  0.4850131  0.7482216  0.7436662

 Al 
  0.7456784  0.4848968  0.7479221

 Al 
  0.7629127  0.7476635  0.5396218

