32 
charge = 0 
 Al 
  0.0087768  0.0140538  0.0082063

 Al 
  0.0029392  0.2549911  0.2521039

 Al 
  0.2556247  0.9807299  0.2593028

 Al 
  0.2332261  0.2665289  0.9913692

 Al 
  0.5019826  0.9926476  0.0109698

 Al 
  0.4953703  0.2465843  0.2570405

 Al 
  0.7425684  0.0022561  0.2479073

 Al 
  0.7521534  0.2513650  0.9990087

 Al 
  0.0077768  0.4988095  0.9834959

 Al 
  0.0039652  0.7440176  0.2390290

 Al 
  0.2415821  0.5041533  0.2482105

 Al 
  0.2589934  0.7422541  0.0031731

 Al 
  0.9816296  0.0187070  0.4930956

 Al 
  0.9873509  0.2534974  0.7412393

 Al 
  0.2212947  0.0030840  0.7321692

 Al 
  0.2446884  0.2666267  0.5083981

 Al 
  0.9982946  0.5048327  0.4845181

 Al 
  0.0117952  0.7485273  0.7583189

 Al 
  0.2522152  0.5115440  0.7367692

 Al 
  0.2701512  0.7480360  0.4888285

 Al 
  0.5119054  0.5119462  0.0026434

 Al 
  0.5058846  0.7274429  0.2686550

 Al 
  0.7572769  0.4962960  0.2395216

 Al 
  0.7487798  0.7484827  0.9962960

 Al 
  0.4885686  0.9949408  0.5014876

 Al 
  0.4922529  0.2556829  0.7599413

 Al 
  0.7600069  0.0057807  0.7739369

 Al 
  0.7479704  0.2384733  0.4899089

 Al 
  0.5210522  0.4885736  0.4932565

 Al 
  0.4852619  0.7474618  0.7438134

 Al 
  0.7460076  0.4843547  0.7477823

 Al 
  0.7626528  0.7473207  0.5396045

