32 
charge = 0 
 Al 
  0.0082422  0.0137493  0.0087520

 Al 
  0.0034379  0.2550901  0.2514380

 Al 
  0.2552448  0.9812101  0.2595070

 Al 
  0.2333226  0.2666650  0.9915363

 Al 
  0.5024714  0.9927244  0.0110106

 Al 
  0.4954532  0.2462762  0.2567323

 Al 
  0.7424323  0.0027598  0.2478169

 Al 
  0.7522115  0.2519034  0.9987303

 Al 
  0.0076840  0.4986659  0.9832731

 Al 
  0.0044527  0.7440820  0.2389560

 Al 
  0.2416341  0.5043624  0.2483602

 Al 
  0.2586357  0.7416390  0.0030840

 Al 
  0.9810999  0.0185746  0.4936550

 Al 
  0.9872407  0.2534825  0.7407344

 Al 
  0.2210274  0.0031558  0.7322311

 Al 
  0.2450002  0.2665017  0.5081073

 Al 
  0.9981795  0.5049886  0.4842867

 Al 
  0.0115205  0.7487959  0.7580157

 Al 
  0.2523217  0.5120303  0.7367222

 Al 
  0.2688629  0.7483627  0.4890030

 Al 
  0.5124165  0.5118596  0.0018675

 Al 
  0.5063932  0.7277808  0.2688456

 Al 
  0.7576816  0.4962749  0.2398916

 Al 
  0.7492736  0.7489468  0.9965695

 Al 
  0.4882122  0.9950151  0.5019009

 Al 
  0.4924001  0.2553500  0.7599067

 Al 
  0.7602173  0.0054428  0.7742537

 Al 
  0.7479209  0.2387085  0.4897616

 Al 
  0.5207539  0.4880674  0.4938753

 Al 
  0.4855341  0.7467130  0.7439755

 Al 
  0.7463381  0.4838350  0.7476474

 Al 
  0.7623843  0.7469865  0.5395525

