32 
charge = 0 
 Al 
  0.0129214  0.0158854  0.0038439

 Al 
  0.9990434  0.2540270  0.2571073

 Al 
  0.2582001  0.9778600  0.2570949

 Al 
  0.2335751  0.2648792  0.9901453

 Al 
  0.4975880  0.9923308  0.0101257

 Al 
  0.4943604  0.2491894  0.2589080

 Al 
  0.7441030  0.9975533  0.2486783

 Al 
  0.7514009  0.2471734  0.0017759

 Al 
  0.0077979  0.5004344  0.9857953

 Al 
  0.9994703  0.7439199  0.2399176

 Al 
  0.2415883  0.5019170  0.2467885

 Al 
  0.2616826  0.7476449  0.0037845

 Al 
  0.9867519  0.0184805  0.4884882

 Al 
  0.9887110  0.2539478  0.7454074

 Al 
  0.2244493  0.0026694  0.7322496

 Al 
  0.2424162  0.2670524  0.5101728

 Al 
  0.9991387  0.5037968  0.4871850

 Al 
  0.0135662  0.7463690  0.7606331

 Al 
  0.2512809  0.5071593  0.7375291

 Al 
  0.2789280  0.7447032  0.4881553

 Al 
  0.5071915  0.5117259  0.0086332

 Al 
  0.5026150  0.7255136  0.2661341

 Al 
  0.7542102  0.4965695  0.2368002

 Al 
  0.7453010  0.7447032  0.9939941

 Al 
  0.4922925  0.9949743  0.4986189

 Al 
  0.4910957  0.2579798  0.7601381

 Al 
  0.7577447  0.0081023  0.7705559

 Al 
  0.7478528  0.2372494  0.4915512

 Al 
  0.5229382  0.4927454  0.4888347

 Al 
  0.4838733  0.7538166  0.7430944

 Al 
  0.7434323  0.4892604  0.7490966

 Al 
  0.7644758  0.7503663  0.5387654

