32 
charge = 0 
 Al 
  0.0114029  0.0153334  0.0054737

 Al 
  0.0004802  0.2544193  0.2553141

 Al 
  0.2573363  0.9787337  0.2580380

 Al 
  0.2332088  0.2656094  0.9905673

 Al 
  0.4993255  0.9923791  0.0105502

 Al 
  0.4948134  0.2481907  0.2583375

 Al 
  0.7434422  0.9994617  0.2483875

 Al 
  0.7517499  0.2487142  0.0006299

 Al 
  0.0079377  0.4997290  0.9848213

 Al 
  0.0012710  0.7438691  0.2395203

 Al 
  0.2415091  0.5028736  0.2473702

 Al 
  0.2607173  0.7455336  0.0035778

 Al 
  0.9846394  0.0188382  0.4902319

 Al 
  0.9881132  0.2537053  0.7438209

 Al 
  0.2230508  0.0027944  0.7321061

 Al 
  0.2432144  0.2670177  0.5096270

 Al 
  0.9988429  0.5041322  0.4860143

 Al 
  0.0129907  0.7471759  0.7597928

 Al 
  0.2516410  0.5088919  0.7371578

 Al 
  0.2759764  0.7461042  0.4882493

 Al 
  0.5090986  0.5120105  0.0064489

 Al 
  0.5036619  0.7260594  0.2673061

 Al 
  0.7553166  0.4964507  0.2377655

 Al 
  0.7465076  0.7461227  0.9948839

 Al 
  0.4907146  0.9948245  0.4996065

 Al 
  0.4915177  0.2571902  0.7600837

 Al 
  0.7587124  0.0073128  0.7719989

 Al 
  0.7480063  0.2375724  0.4908297

 Al 
  0.5223306  0.4911675  0.4903643

 Al 
  0.4842310  0.7513650  0.7432330

 Al 
  0.7443827  0.4872754  0.7485483

 Al 
  0.7638557  0.7491436  0.5393433

