32 
charge = 0 
 Al 
  0.0103633  0.0148718  0.0065653

 Al 
  0.0014554  0.2546631  0.2540580

 Al 
  0.2566915  0.9794515  0.2585924

 Al 
  0.2331221  0.2660240  0.9908779

 Al 
  0.5004282  0.9924608  0.0107606

 Al 
  0.4950658  0.2475373  0.2578697

 Al 
  0.7430560  0.0006361  0.2481919

 Al 
  0.7519355  0.2497636  0.9999381

 Al 
  0.0079328  0.4993206  0.9842471

 Al 
  0.0023972  0.7438939  0.2392988

 Al 
  0.2415041  0.5034318  0.2477254

 Al 
  0.2600416  0.7441835  0.0034231

 Al 
  0.9833610  0.0188939  0.4913878

 Al 
  0.9877692  0.2535939  0.7427776

 Al 
  0.2222650  0.0028971  0.7320838

 Al 
  0.2437862  0.2669101  0.5091815

 Al 
  0.9986313  0.5043946  0.4853485

 Al 
  0.0125476  0.7477167  0.7592124

 Al 
  0.2518774  0.5099933  0.7369709

 Al 
  0.2737761  0.7469370  0.4884201

 Al 
  0.5102742  0.5120625  0.0049453

 Al 
  0.5044837  0.7265470  0.2679298

 Al 
  0.7560863  0.4963801  0.2384474

 Al 
  0.7473764  0.7470719  0.9954581

 Al 
  0.4897839  0.9948183  0.5003242

 Al 
  0.4918098  0.2566160  0.7600342

 Al 
  0.7592780  0.0067323  0.7728454

 Al 
  0.7480348  0.2378781  0.4904213

 Al 
  0.5218591  0.4901205  0.4914757

 Al 
  0.4845787  0.7497735  0.7434162

 Al 
  0.7450262  0.4860452  0.7482216

 Al 
  0.7634028  0.7483825  0.5395525

