32 
charge = 0 
 Al 
  0.0138991  0.0161551  0.0027697

 Al 
  0.9981090  0.2537498  0.2582298

 Al 
  0.2587038  0.9774132  0.2563994

 Al 
  0.2339822  0.2643235  0.9899015

 Al 
  0.4963838  0.9923581  0.0097706

 Al 
  0.4940077  0.2498614  0.2591988

 Al 
  0.7445919  0.9961821  0.2488639

 Al 
  0.7511175  0.2461747  0.0026088

 Al 
  0.0076098  0.5009616  0.9865217

 Al 
  0.9982055  0.7440102  0.2402257

 Al 
  0.2416799  0.5012029  0.2463727

 Al 
  0.2622853  0.7491003  0.0039020

 Al 
  0.9882927  0.0180548  0.4873311

 Al 
  0.9891552  0.2541644  0.7464717

 Al 
  0.2255297  0.0026014  0.7324142

 Al 
  0.2419323  0.2669893  0.5104500

 Al 
  0.9993169  0.5036162  0.4880773

 Al 
  0.0138892  0.7458406  0.7611690

 Al 
  0.2510433  0.5059638  0.7378397

 Al 
  0.2806470  0.7436686  0.4882023

 Al 
  0.5058227  0.5113868  0.0100267

 Al 
  0.5020494  0.7252871  0.2651837

 Al 
  0.7535122  0.4966536  0.2361999

 Al 
  0.7445622  0.7437701  0.9933815

 Al 
  0.4934607  0.9951698  0.4980174

 Al 
  0.4908309  0.2584600  0.7601579

 Al 
  0.7570232  0.0085726  0.7694792

 Al 
  0.7476771  0.2371269  0.4921093

 Al 
  0.5232773  0.4937961  0.4879202

 Al 
  0.4837434  0.7554886  0.7430994

 Al 
  0.7428085  0.4906663  0.7495025

 Al 
  0.7648507  0.7512338  0.5382036

