32 
charge = 0 
 Al 
  0.0143743  0.0162579  0.0022388

 Al 
  0.9976486  0.2536087  0.2587644

 Al 
  0.2589327  0.9772326  0.2560344

 Al 
  0.2342347  0.2640253  0.9897926

 Al 
  0.4957712  0.9923902  0.0095701

 Al 
  0.4938171  0.2501968  0.2593151

 Al 
  0.7448493  0.9954668  0.2489530

 Al 
  0.7509603  0.2456846  0.0030444

 Al 
  0.0074885  0.5012400  0.9869091

 Al 
  0.9975558  0.7440721  0.2403928

 Al 
  0.2417356  0.5008230  0.2461574

 Al 
  0.2625712  0.7498391  0.0039540

 Al 
  0.9891008  0.0177850  0.4867568

 Al 
  0.9893879  0.2542894  0.7470051

 Al 
  0.2261138  0.0025717  0.7325170

 Al 
  0.2417071  0.2669299  0.5105614

 Al 
  0.9993998  0.5035407  0.4885563

 Al 
  0.0140315  0.7455794  0.7614277

 Al 
  0.2509269  0.5053599  0.7380142

 Al 
  0.2814279  0.7431241  0.4882592

 Al 
  0.5051087  0.5111715  0.0107012

 Al 
  0.5018081  0.7252178  0.2646552

 Al 
  0.7531756  0.4966957  0.2359153

 Al 
  0.7442107  0.7433110  0.9930697

 Al 
  0.4940783  0.9952960  0.4977340

 Al 
  0.4907047  0.2586840  0.7601629

 Al 
  0.7566408  0.0087916  0.7689087

 Al 
  0.7475670  0.2370922  0.4924137

 Al 
  0.5234271  0.4943171  0.4874981

 Al 
  0.4837124  0.7563314  0.7431328

 Al 
  0.7425016  0.4913915  0.7497178

 Al 
  0.7650277  0.7516831  0.5378682

