32 
charge = 0 
 Al 
  0.0157356  0.0164336  0.0006782

 Al 
  0.9963071  0.2531781  0.2602495

 Al 
  0.2595292  0.9768601  0.2548822

 Al 
  0.2351864  0.2630575  0.9895339

 Al 
  0.4939161  0.9925759  0.0088832

 Al 
  0.4931860  0.2511955  0.2595527

 Al 
  0.7456623  0.9932169  0.2491968

 Al 
  0.7504257  0.2442627  0.0044243

 Al 
  0.0070170  0.5021224  0.9881590

 Al 
  0.9955572  0.7443245  0.2409472

 Al 
  0.2419286  0.4996015  0.2454891

 Al 
  0.2633558  0.7520766  0.0040778

 Al 
  0.9916774  0.0167492  0.4850738

 Al 
  0.9901156  0.2547312  0.7485917

 Al 
  0.2280419  0.0024999  0.7328932

 Al 
  0.2411118  0.2666427  0.5107779

 Al 
  0.9996188  0.5033748  0.4901168

 Al 
  0.0143854  0.7448258  0.7621566

 Al 
  0.2505953  0.5035357  0.7386243

 Al 
  0.2834352  0.7413903  0.4885624

 Al 
  0.5028513  0.5103349  0.0126095

 Al 
  0.5012598  0.7252005  0.2628595

 Al 
  0.7522326  0.4968158  0.2351294

 Al 
  0.7432318  0.7419769  0.9921143

 Al 
  0.4960497  0.9957898  0.4969581

 Al 
  0.4903569  0.2592978  0.7601505

 Al 
  0.7554119  0.0093758  0.7670722

 Al 
  0.7471548  0.2370972  0.4934199

 Al 
  0.5237983  0.4958579  0.4863881

 Al 
  0.4837520  0.7588820  0.7433617

 Al 
  0.7415957  0.4936365  0.7504109

 Al 
  0.7655166  0.7530840  0.5366554

