32 
charge = 0 
 Al 
  0.0183630  0.0160252  0.9973912

 Al 
  0.9934657  0.2522202  0.2628323

 Al 
  0.2603596  0.9770197  0.2520865

 Al 
  0.2384362  0.2604673  0.9894127

 Al 
  0.4897530  0.9936167  0.0068276

 Al 
  0.4914534  0.2533105  0.2594414

 Al 
  0.7476647  0.9875625  0.2495545

 Al 
  0.7488330  0.2413086  0.0079328

 Al 
  0.0053871  0.5042832  0.9915413

 Al 
  0.9908557  0.7452218  0.2425028

 Al 
  0.2424261  0.4964309  0.2439001

 Al 
  0.2645921  0.7571160  0.0041297

 Al 
  0.9983664  0.0131008  0.4815925

 Al 
  0.9918271  0.2561247  0.7520841

 Al 
  0.2334278  0.0024207  0.7340862

 Al 
  0.2402963  0.2653223  0.5105948

 Al 
  0.9999022  0.5033860  0.4943382

 Al 
  0.0147555  0.7433246  0.7634659

 Al 
  0.2500012  0.4994777  0.7405252

 Al 
  0.2860428  0.7369895  0.4899572

 Al 
  0.4970769  0.5073140  0.0161465

 Al 
  0.5010123  0.7263514  0.2575887

 Al 
  0.7504963  0.4969952  0.2337842

 Al 
  0.7413680  0.7392963  0.9898483

 Al 
  0.5011002  0.9975298  0.4955633

 Al 
  0.4898062  0.2603250  0.7599339

 Al 
  0.7522090  0.0103163  0.7622556

 Al 
  0.7458146  0.2377221  0.4962613

 Al 
  0.5242104  0.4991634  0.4848559

 Al 
  0.4846431  0.7646985  0.7446290

 Al 
  0.7396478  0.4990236  0.7522276

 Al 
  0.7664088  0.7565331  0.5327088

