32 
charge = 0 
 Al 
  0.0173494  0.0163433  0.9987216

 Al 
  0.9946253  0.2526125  0.2618942

 Al 
  0.2601010  0.9767747  0.2532771

 Al 
  0.2368843  0.2616219  0.9893731

 Al 
  0.4914732  0.9930573  0.0077756

 Al 
  0.4922293  0.2524590  0.2596010

 Al 
  0.7468059  0.9900252  0.2494443

 Al 
  0.7495681  0.2425016  0.0063957

 Al 
  0.0061643  0.5033600  0.9900228

 Al 
  0.9928444  0.7447948  0.2417987

 Al 
  0.2422182  0.4978244  0.2445733

 Al 
  0.2641825  0.7550270  0.0041520

 Al 
  0.9954111  0.0148594  0.4829823

 Al 
  0.9911081  0.2554700  0.7506411

 Al 
  0.2309886  0.0024392  0.7335342

 Al 
  0.2405364  0.2659967  0.5107915

 Al 
  0.9998243  0.5033142  0.4924509

 Al 
  0.0146738  0.7439100  0.7629845

 Al 
  0.2502166  0.5011534  0.7396305

 Al 
  0.2852903  0.7389053  0.4892542

 Al 
  0.4996151  0.5087817  0.0148173

 Al 
  0.5009443  0.7256485  0.2600069

 Al 
  0.7511509  0.4969420  0.2342656

 Al 
  0.7420969  0.7403495  0.9908148

 Al 
  0.4988924  0.9966957  0.4960905

 Al 
  0.4899894  0.2599574  0.7600626

 Al 
  0.7536211  0.0099871  0.7643854

 Al 
  0.7464395  0.2373521  0.4949718

 Al 
  0.5241102  0.4978120  0.4853200

 Al 
  0.4841258  0.7622593  0.7439669

 Al 
  0.7404473  0.4967217  0.7514257

 Al 
  0.7660710  0.7550431  0.5345738

