32 
charge = 0 
 Al 
  0.0198827  0.0145166  0.9949136

 Al 
  0.9911799  0.2514876  0.2639399

 Al 
  0.2604525  0.9785506  0.2496621

 Al 
  0.2426303  0.2576766  0.9900809

 Al 
  0.4865143  0.9956277  0.0043995

 Al 
  0.4895995  0.2547770  0.2585280

 Al 
  0.7494716  0.9820207  0.2495013

 Al 
  0.7469148  0.2390166  0.0114524

 Al 
  0.0033229  0.5061754  0.9953220

 Al 
  0.9867630  0.7463009  0.2442305

 Al 
  0.2427367  0.4932726  0.2425573

 Al 
  0.2646985  0.7611195  0.0037907

 Al 
  0.0053772  0.0081803  0.4791830

 Al 
  0.9932380  0.2578697  0.7549725

 Al 
  0.2395203  0.0024726  0.7354401

 Al 
  0.2404151  0.2632271  0.5095230

 Al 
  0.9998082  0.5038872  0.4988850

 Al 
  0.0145389  0.7424212  0.7640179

 Al 
  0.2497772  0.4962329  0.7429867

 Al 
  0.2857804  0.7327484  0.4919769

 Al 
  0.4911589  0.5031545  0.0179199

 Al 
  0.5020148  0.7291359  0.2515049

 Al 
  0.7495372  0.4969370  0.2332954

 Al 
  0.7400438  0.7376083  0.9877877

 Al 
  0.5060579  0.9997537  0.4946871

 Al 
  0.4897703  0.2607519  0.7593919

 Al 
  0.7489258  0.0106839  0.7572818

 Al 
  0.7443010  0.2391169  0.4994617

 Al 
  0.5240310  0.5017883  0.4849042

 Al 
  0.4865601  0.7696995  0.7466895

 Al 
  0.7380563  0.5039602  0.7540778

 Al 
  0.7669224  0.7598275  0.5276372

