32 
charge = 0 
 Al 
  0.0197453  0.0147913  0.9952082

 Al 
  0.9914682  0.2515742  0.2638731

 Al 
  0.2604784  0.9782573  0.2499641

 Al 
  0.2420029  0.2580751  0.9899361

 Al 
  0.4868930  0.9952799  0.0047547

 Al 
  0.4898594  0.2546186  0.2586964

 Al 
  0.7492389  0.9827719  0.2495372

 Al 
  0.7471994  0.2393013  0.0109685

 Al 
  0.0036273  0.5059391  0.9947713

 Al 
  0.9872828  0.7461499  0.2439830

 Al 
  0.2427132  0.4937020  0.2427207

 Al 
  0.2647604  0.7606430  0.0038637

 Al 
  0.0043872  0.0089340  0.4794490

 Al 
  0.9930659  0.2576085  0.7546062

 Al 
  0.2386355  0.0024566  0.7352495

 Al 
  0.2403408  0.2635624  0.5097223

 Al 
  0.9998453  0.5037931  0.4982402

 Al 
  0.0146008  0.7425053  0.7639906

 Al 
  0.2497847  0.4966276  0.7426093

 Al 
  0.2859759  0.7333139  0.4916700

 Al 
  0.4919831  0.5037931  0.0177862

 Al 
  0.5018118  0.7286496  0.2523848

 Al 
  0.7496275  0.4969618  0.2333090

 Al 
  0.7402022  0.7377754  0.9880563

 Al 
  0.5053896  0.9994258  0.4947874

 Al 
  0.4897381  0.2607260  0.7594909

 Al 
  0.7493812  0.0106628  0.7579724

 Al 
  0.7445089  0.2388768  0.4990013

 Al 
  0.5240892  0.5014628  0.4848064

 Al 
  0.4862309  0.7690609  0.7463640

 Al 
  0.7382592  0.5033105  0.7538241

 Al 
  0.7668742  0.7593869  0.5284058

