32 
charge = 0 
 Al 
  0.0195795  0.0150475  0.9955237

 Al 
  0.9917690  0.2516670  0.2637765

 Al 
  0.2604908  0.9779875  0.2502846

 Al 
  0.2413816  0.2584761  0.9898087

 Al 
  0.4873026  0.9949532  0.0051087

 Al 
  0.4901230  0.2544428  0.2588535

 Al 
  0.7489963  0.9835404  0.2495631

 Al 
  0.7474828  0.2395995  0.0104772

 Al 
  0.0039317  0.5056891  0.9942218

 Al 
  0.9878261  0.7459965  0.2437355

 Al 
  0.2426823  0.4941401  0.2428952

 Al 
  0.2647951  0.7601307  0.0039280

 Al 
  0.0033897  0.0096740  0.4797411

 Al 
  0.9928828  0.2573511  0.7542238

 Al 
  0.2377518  0.0024442  0.7350564

 Al 
  0.2402851  0.2638879  0.5099079

 Al 
  0.9998750  0.5037053  0.4975917

 Al 
  0.0146527  0.7426056  0.7639449

 Al 
  0.2497995  0.4970472  0.7422392

 Al 
  0.2861220  0.7338956  0.4913668

 Al 
  0.4928172  0.5044218  0.0176130

 Al 
  0.5016262  0.7281904  0.2532647

 Al 
  0.7497314  0.4969803  0.2333412

 Al 
  0.7403718  0.7379684  0.9883360

 Al 
  0.5047040  0.9990978  0.4948938

 Al 
  0.4897196  0.2606901  0.7595824

 Al 
  0.7498428  0.0106319  0.7586728

 Al 
  0.7447230  0.2386491  0.4985397

 Al 
  0.5241362  0.5011212  0.4847371

 Al 
  0.4859203  0.7683939  0.7460460

 Al 
  0.7384696  0.5026397  0.7535654

 Al 
  0.7668172  0.7589340  0.5291632

