32 
charge = 0 
 Al 
  0.0193877  0.0152851  0.9958579

 Al 
  0.9920833  0.2517660  0.2636491

 Al 
  0.2604921  0.9777412  0.2506188

 Al 
  0.2407678  0.2588770  0.9896961

 Al 
  0.4877407  0.9946451  0.0054614

 Al 
  0.4903879  0.2542498  0.2589996

 Al 
  0.7487451  0.9843238  0.2495805

 Al 
  0.7477612  0.2399114  0.0099772

 Al 
  0.0042325  0.5054279  0.9936761

 Al 
  0.9883941  0.7458406  0.2434867

 Al 
  0.2426439  0.4945869  0.2430796

 Al 
  0.2648062  0.7595862  0.0039850

 Al 
  0.0023860  0.0103980  0.4800604

 Al 
  0.9926897  0.2570962  0.7538253

 Al 
  0.2368719  0.0024343  0.7348621

 Al 
  0.2402480  0.2642023  0.5100775

 Al 
  0.9998960  0.5036248  0.4969395

 Al 
  0.0146948  0.7427207  0.7638830

 Al 
  0.2498230  0.4974902  0.7418766

 Al 
  0.2862173  0.7344933  0.4910685

 Al 
  0.4936612  0.5050356  0.0173989

 Al 
  0.5014603  0.7277598  0.2541446

 Al 
  0.7498527  0.4969940  0.2333919

 Al 
  0.7405500  0.7381862  0.9886231

 Al 
  0.5040035  0.9987736  0.4950101

 Al 
  0.4897134  0.2606418  0.7596666

 Al 
  0.7503094  0.0105898  0.7593820

 Al 
  0.7449396  0.2384350  0.4980781

 Al 
  0.5241733  0.5007623  0.4846975

 Al 
  0.4856257  0.7677021  0.7457366

 Al 
  0.7386887  0.5019492  0.7533031

 Al 
  0.7667516  0.7584699  0.5299069

