32 
charge = 0 
 Al 
  0.0186563  0.0158730  0.9969803

 Al 
  0.9931018  0.2520977  0.2630835

 Al 
  0.2604153  0.9771595  0.2517041

 Al 
  0.2389956  0.2600738  0.9894584

 Al 
  0.4892146  0.9938431  0.0064947

 Al 
  0.4911886  0.2535679  0.2593547

 Al 
  0.7479444  0.9867420  0.2495743

 Al 
  0.7485731  0.2409373  0.0084476

 Al 
  0.0051087  0.5045815  0.9920660

 Al 
  0.9902158  0.7453740  0.2427454

 Al 
  0.2424892  0.4959655  0.2436847

 Al 
  0.2646824  0.7577731  0.0041062

 Al 
  0.9993676  0.0124598  0.4811730

 Al 
  0.9920548  0.2563586  0.7525407

 Al 
  0.2342731  0.0024207  0.7342780

 Al 
  0.2402542  0.2650648  0.5104908

 Al 
  0.9999134  0.5034318  0.4949842

 Al 
  0.0147579  0.7431538  0.7635946

 Al 
  0.2499443  0.4989505  0.7408482

 Al 
  0.2861727  0.7363534  0.4902195

 Al 
  0.4962205  0.5067757  0.0165177

 Al 
  0.5010878  0.7266546  0.2567447

 Al 
  0.7503106  0.4970026  0.2336580

 Al 
  0.7411465  0.7389857  0.9895327

 Al 
  0.5018365  0.9978293  0.4954099

 Al 
  0.4897654  0.2604228  0.7598782

 Al 
  0.7517326  0.0104017  0.7615366

 Al 
  0.7455980  0.2378781  0.4967081

 Al 
  0.5242179  0.4995867  0.4847681

 Al 
  0.4848584  0.7654807  0.7448839

 Al 
  0.7393953  0.4997748  0.7524986

 Al 
  0.7665066  0.7570269  0.5320380

