32 
charge = 0 
 Al 
  0.0189248  0.0156985  0.9965868

 Al 
  0.9927491  0.2519813  0.2633038

 Al 
  0.2604549  0.9773266  0.2513304

 Al 
  0.2395723  0.2596765  0.9895216

 Al 
  0.4886986  0.9940906  0.0061556

 Al 
  0.4909212  0.2538117  0.2592508

 Al 
  0.7482179  0.9859277  0.2495854

 Al 
  0.7483083  0.2405809  0.0089612

 Al 
  0.0048228  0.5048723  0.9925969

 Al 
  0.9895896  0.7455287  0.2429917

 Al 
  0.2425462  0.4955015  0.2434756

 Al 
  0.2647493  0.7584055  0.0040741

 Al 
  0.0003737  0.0117940  0.4807769

 Al 
  0.9922751  0.2565987  0.7529838

 Al 
  0.2351307  0.0024219  0.7344723

 Al 
  0.2402332  0.2647913  0.5103708

 Al 
  0.9999158  0.5034875  0.4956339

 Al 
  0.0147480  0.7429954  0.7637072

 Al 
  0.2498960  0.4984431  0.7411811

 Al 
  0.2862445  0.7357247  0.4904930

 Al 
  0.4953653  0.5062150  0.0168507

 Al 
  0.5011893  0.7269900  0.2558871

 Al 
  0.7501411  0.4970051  0.2335503

 Al 
  0.7409373  0.7386961  0.9892233

 Al 
  0.5025679  0.9981375  0.4952663

 Al 
  0.4897369  0.2605081  0.7598139

 Al 
  0.7512561  0.0104760  0.7608151

 Al 
  0.7453789  0.2380489  0.4971610

 Al 
  0.5242154  0.4999950  0.4847124

 Al 
  0.4850948  0.7662430  0.7451549

 Al 
  0.7391515  0.5005148  0.7527684

 Al 
  0.7665970  0.7575145  0.5313462

