32 
charge = 0 
 Al 
  0.0199941  0.0117494  0.9932466

 Al 
  0.9893087  0.2509826  0.2635191

 Al 
  0.2599314  0.9816395  0.2478714

 Al 
  0.2476375  0.2545233  0.9917591

 Al 
  0.4846369  0.9990557  0.0015952

 Al 
  0.4876714  0.2553710  0.2568994

 Al 
  0.7509529  0.9767994  0.2488565

 Al 
  0.7445919  0.2372073  0.0149213

 Al 
  0.0009071  0.5075454  0.9997488

 Al 
  0.9835763  0.7472984  0.2460757

 Al 
  0.2426118  0.4902765  0.2417182

 Al 
  0.2633199  0.7636318  0.0029429

 Al 
  0.0129548  0.0018390  0.4780221

 Al 
  0.9942231  0.2599661  0.7573932

 Al 
  0.2465051  0.0026991  0.7368323

 Al 
  0.2416390  0.2602619  0.5075021

 Al 
  0.9992624  0.5048042  0.5037721

 Al 
  0.0137617  0.7423135  0.7636528

 Al 
  0.2500037  0.4939545  0.7462378

 Al 
  0.2826890  0.7289565  0.4944359

 Al 
  0.4850886  0.4978120  0.0175932

 Al 
  0.5040481  0.7338647  0.2447366

 Al 
  0.7492810  0.4965707  0.2338597

 Al 
  0.7390723  0.7372296  0.9860725

 Al 
  0.5106195  0.0023081  0.4940585

 Al 
  0.4905091  0.2605812  0.7583399

 Al 
  0.7456351  0.0105824  0.7522672

 Al 
  0.7429125  0.2414880  0.5029900

 Al 
  0.5232229  0.5038117  0.4865712

 Al 
  0.4897097  0.7737303  0.7494555

 Al 
  0.7367086  0.5083226  0.7558623

 Al 
  0.7670140  0.7628236  0.5211895

