32 
charge = 0 
 Al 
  0.0201599  0.0128966  0.9937355

 Al 
  0.9899250  0.2511373  0.2638619

 Al 
  0.2601827  0.9803388  0.2484097

 Al 
  0.2457836  0.2556977  0.9910252

 Al 
  0.4850973  0.9976400  0.0026298

 Al 
  0.4883570  0.2552856  0.2575553

 Al 
  0.7504777  0.9785766  0.2491758

 Al 
  0.7454668  0.2377976  0.0137122

 Al 
  0.0017994  0.5071457  0.9980880

 Al 
  0.9845602  0.7469791  0.2454173

 Al 
  0.2427256  0.4913024  0.2419274

 Al 
  0.2640154  0.7629647  0.0033130

 Al 
  0.0101926  0.0042671  0.4782610

 Al 
  0.9939347  0.2591852  0.7565838

 Al 
  0.2439174  0.0025927  0.7363410

 Al 
  0.2410561  0.2614227  0.5083399

 Al 
  0.9995174  0.5044354  0.5020049

 Al 
  0.0141070  0.7422343  0.7639090

 Al 
  0.2498614  0.4946277  0.7449743

 Al 
  0.2841382  0.7302139  0.4935263

 Al 
  0.4872420  0.4998416  0.0179954

 Al 
  0.5032214  0.7319341  0.2472006

 Al 
  0.7492934  0.4967415  0.2335120

 Al 
  0.7393768  0.7371690  0.9866170

 Al 
  0.5090862  0.0013774  0.4942688

 Al 
  0.4901304  0.2607173  0.7587892

 Al 
  0.7467873  0.0106703  0.7540270

 Al 
  0.7433630  0.2405079  0.5017091

 Al 
  0.5235954  0.5031669  0.4857792

 Al 
  0.4884276  0.7724481  0.7484023

 Al 
  0.7371615  0.5068660  0.7552497

 Al 
  0.7670412  0.7618200  0.5236572

