32 
charge = 0 
 Al 
  0.0198839  0.0113410  0.9931167

 Al 
  0.9891243  0.2509368  0.2633607

 Al 
  0.2598374  0.9821061  0.2477254

 Al 
  0.2482414  0.2541310  0.9920289

 Al 
  0.4845478  0.9995582  0.0012561

 Al 
  0.4874548  0.2553636  0.2566729

 Al 
  0.7510903  0.9762598  0.2487290

 Al 
  0.7443010  0.2370328  0.0152987

 Al 
  0.0006151  0.5076469  0.0003020

 Al 
  0.9833065  0.7473875  0.2462848

 Al 
  0.2425561  0.4899634  0.2416786

 Al 
  0.2630439  0.7637827  0.0028068

 Al 
  0.0138557  0.0010185  0.4779937

 Al 
  0.9942973  0.2602223  0.7576419

 Al 
  0.2473566  0.0027412  0.7369870

 Al 
  0.2418643  0.2598646  0.5072039

 Al 
  0.9991659  0.5049304  0.5043426

 Al 
  0.0136342  0.7423729  0.7635377

 Al 
  0.2500656  0.4937751  0.7466697

 Al 
  0.2821370  0.7285840  0.4947329

 Al 
  0.4844055  0.4971363  0.0173890

 Al 
  0.5043327  0.7345441  0.2439372

 Al 
  0.7492946  0.4965064  0.2340107

 Al 
  0.7389845  0.7373051  0.9859190

 Al 
  0.5110799  0.0026088  0.4939916

 Al 
  0.4906638  0.2605193  0.7581753

 Al 
  0.7452750  0.0105428  0.7517153

 Al 
  0.7427838  0.2418395  0.5034033

 Al 
  0.5230805  0.5039998  0.4868744

 Al 
  0.4901601  0.7740941  0.7498069

 Al 
  0.7365700  0.5087607  0.7560492

 Al 
  0.7669880  0.7631244  0.5203567

