32 
charge = 0 
 Al 
  0.0186426  0.0086283  0.9926291

 Al 
  0.9882110  0.2506967  0.2620031

 Al 
  0.2591889  0.9852470  0.2471685

 Al 
  0.2516719  0.2517214  0.9939112

 Al 
  0.4846666  0.0028835  0.9992896

 Al 
  0.4862903  0.2549725  0.2552634

 Al 
  0.7517078  0.9736214  0.2477130

 Al 
  0.7425561  0.2361727  0.0172788

 Al 
  0.9989085  0.5079229  0.0036310

 Al 
  0.9823251  0.7476944  0.2474073

 Al 
  0.2420412  0.4883719  0.2417813

 Al 
  0.2609524  0.7639659  0.0018687

 Al 
  0.0190968  0.9959891  0.4783526

 Al 
  0.9945411  0.2617012  0.7589575

 Al 
  0.2523749  0.0030630  0.7378323

 Al 
  0.2435251  0.2573907  0.5052448

 Al 
  0.9984617  0.5057015  0.5075974

 Al 
  0.0127358  0.7430783  0.7625316

 Al 
  0.2505891  0.4931451  0.7493825

 Al 
  0.2781768  0.7268403  0.4964333

 Al 
  0.4807039  0.4931278  0.0154745

 Al 
  0.5060542  0.7389560  0.2393879

 Al 
  0.7494864  0.4960435  0.2352841

 Al 
  0.7386107  0.7383496  0.9853114

 Al 
  0.5133050  0.0042795  0.4935808

 Al 
  0.4918903  0.2599871  0.7570108

 Al 
  0.7434013  0.0102297  0.7487847

 Al 
  0.7422826  0.2442330  0.5057349

 Al 
  0.5220063  0.5048946  0.4890575

 Al 
  0.4931018  0.7756250  0.7518650

 Al 
  0.7358460  0.5109066  0.7569885

 Al 
  0.7666477  0.7645599  0.5152443

