32 
charge = 0 
 Al 
  0.0183394  0.0081345  0.9925907

 Al 
  0.9880897  0.2506571  0.2617135

 Al 
  0.2590713  0.9858225  0.2471214

 Al 
  0.2522016  0.2513032  0.9942664

 Al 
  0.4847928  0.0034850  0.9989741

 Al 
  0.4861220  0.2548525  0.2550245

 Al 
  0.7517784  0.9732885  0.2474989

 Al 
  0.7422665  0.2360589  0.0175622

 Al 
  0.9986313  0.5079117  0.0041879

 Al 
  0.9822732  0.7477043  0.2475707

 Al 
  0.2419261  0.4881565  0.2418593

 Al 
  0.2605354  0.7638805  0.0016942

 Al 
  0.0199483  0.9951302  0.4785023

 Al 
  0.9945485  0.2619351  0.7591542

 Al 
  0.2531979  0.0031286  0.7379598

 Al 
  0.2438518  0.2569638  0.5048921

 Al 
  0.9983231  0.5058277  0.5081135

 Al 
  0.0125637  0.7432553  0.7623113

 Al 
  0.2507017  0.4931093  0.7498540

 Al 
  0.2774145  0.7266323  0.4967031

 Al 
  0.4801544  0.4924769  0.0150463

 Al 
  0.5063326  0.7397431  0.2386676

 Al 
  0.7495273  0.4959556  0.2355589

 Al 
  0.7385748  0.7386243  0.9852643

 Al 
  0.5135847  0.0045332  0.4935065

 Al 
  0.4921452  0.2598745  0.7567843

 Al 
  0.7431390  0.0101666  0.7483578

 Al 
  0.7422491  0.2446834  0.5060999

 Al 
  0.5217861  0.5050121  0.4894782

 Al 
  0.4936303  0.7757685  0.7521942

 Al 
  0.7357420  0.5111863  0.7571123

 Al 
  0.7665573  0.7647369  0.5143731

