32 
charge = 0 
 Al 
  0.0137914  0.0025989  0.9927281

 Al 
  0.9873447  0.2500396  0.2580219

 Al 
  0.2578152  0.9922590  0.2471227

 Al 
  0.2564564  0.2466400  0.9983813

 Al 
  0.4876429  0.0099364  0.9960188

 Al 
  0.4850057  0.2529367  0.2527004

 Al 
  0.7520841  0.9719828  0.2445881

 Al 
  0.7394424  0.2354190  0.0195634

 Al 
  0.9959358  0.5069341  0.0097297

 Al 
  0.9836889  0.7470162  0.2487662

 Al 
  0.2404077  0.4868583  0.2436909

 Al 
  0.2554317  0.7613992  0.9997587

 Al 
  0.0281929  0.9863002  0.4815083

 Al 
  0.9941426  0.2639795  0.7609289

 Al 
  0.2611752  0.0039540  0.7391045

 Al 
  0.2478095  0.2525741  0.5010717

 Al 
  0.9966363  0.5068709  0.5129288

 Al 
  0.0104908  0.7460027  0.7593052

 Al 
  0.2521781  0.4937367  0.7548215

 Al 
  0.2684174  0.7258477  0.4991312

 Al 
  0.4759207  0.4865675  0.0093114

 Al 
  0.5085887  0.7481548  0.2320764

 Al 
  0.7497834  0.4949681  0.2393285

 Al 
  0.7387308  0.7429546  0.9856814

 Al 
  0.5149832  0.0065752  0.4926291

 Al 
  0.4955064  0.2584303  0.7539082

 Al 
  0.7414757  0.0094822  0.7450411

 Al 
  0.7428815  0.2500161  0.5093659

 Al 
  0.5187256  0.5059267  0.4944334

 Al 
  0.4993701  0.7753490  0.7550703

 Al 
  0.7349735  0.5128335  0.7578511

 Al 
  0.7649683  0.7654584  0.5054317

