32 
charge = 0 
 Al 
  0.0149126  0.0037795  0.9926340

 Al 
  0.9874227  0.2502116  0.2588585

 Al 
  0.2580714  0.9908940  0.2470794

 Al 
  0.2557967  0.2476499  0.9974877

 Al 
  0.4868509  0.0086184  0.9965720

 Al 
  0.4851294  0.2534070  0.2531434

 Al 
  0.7520704  0.9719197  0.2452812

 Al 
  0.7399869  0.2354673  0.0192924

 Al 
  0.9964643  0.5072534  0.0086444

 Al 
  0.9831097  0.7472749  0.2485978

 Al 
  0.2407517  0.4869858  0.2431674

 Al 
  0.2565677  0.7621170  0.0001634

 Al 
  0.0265940  0.9880823  0.4806804

 Al 
  0.9942886  0.2636280  0.7605935

 Al 
  0.2596319  0.0037696  0.7388916

 Al 
  0.2469296  0.2534577  0.5018638

 Al 
  0.9970162  0.5067076  0.5120229

 Al 
  0.0109574  0.7453134  0.7600181

 Al 
  0.2518390  0.4934756  0.7538067

 Al 
  0.2703864  0.7258156  0.4986882

 Al 
  0.4765630  0.4876231  0.0106393

 Al 
  0.5082484  0.7464234  0.2332979

 Al 
  0.7497810  0.4951723  0.2384238

 Al 
  0.7386119  0.7418667  0.9854685

 Al 
  0.5149064  0.0062497  0.4928283

 Al 
  0.4947218  0.2587570  0.7545790

 Al 
  0.7416526  0.0096220  0.7455683

 Al 
  0.7426031  0.2488367  0.5087743

 Al 
  0.5194780  0.5057646  0.4933493

 Al 
  0.4981734  0.7757116  0.7545753

 Al 
  0.7350837  0.5126677  0.7577744

 Al 
  0.7653978  0.7654720  0.5072373

