32 
charge = 0 
 Al 
  0.0131949  0.0019987  0.9927850

 Al 
  0.9873199  0.2499406  0.2575912

 Al 
  0.2576877  0.9929484  0.2471474

 Al 
  0.2567410  0.2461227  0.9988367

 Al 
  0.4880786  0.0105886  0.9957527

 Al 
  0.4849661  0.2526905  0.2524863

 Al 
  0.7520841  0.9720806  0.2442243

 Al 
  0.7391775  0.2354116  0.0196711

 Al 
  0.9956760  0.5067521  0.0102619

 Al 
  0.9840342  0.7468653  0.2488367

 Al 
  0.2402319  0.4868212  0.2439805

 Al 
  0.2548488  0.7610044  0.9995557

 Al 
  0.0289775  0.9854141  0.4819638

 Al 
  0.9940572  0.2641416  0.7610935

 Al 
  0.2619313  0.0040481  0.7392072

 Al 
  0.2482625  0.2521348  0.5006745

 Al 
  0.9964408  0.5069403  0.5133682

 Al 
  0.0102495  0.7463702  0.7589315

 Al 
  0.2523538  0.4938902  0.7553277

 Al 
  0.2674125  0.7258972  0.4993441

 Al 
  0.4756448  0.4860725  0.0086233

 Al 
  0.5087310  0.7490186  0.2314873

 Al 
  0.7497686  0.4948678  0.2398074

 Al 
  0.7388075  0.7435350  0.9858126

 Al 
  0.5149856  0.0067187  0.4925251

 Al 
  0.4959173  0.2582620  0.7535543

 Al 
  0.7414212  0.0094117  0.7448022

 Al 
  0.7430511  0.2506225  0.5096480

 Al 
  0.5183209  0.5060084  0.4949866

 Al 
  0.4999703  0.7751139  0.7552980

 Al 
  0.7349277  0.5128880  0.7578783

 Al 
  0.7647307  0.7654200  0.5045332

