32 
charge = 0 
 Al 
  0.0099104  0.9989617  0.9931550

 Al 
  0.9873348  0.2492971  0.2553661

 Al 
  0.2570652  0.9963888  0.2472538

 Al 
  0.2576358  0.2434347  0.0011546

 Al 
  0.4905933  0.0136701  0.9945535

 Al 
  0.4850379  0.2513960  0.2515173

 Al 
  0.7520506  0.9732563  0.2422529

 Al 
  0.7379672  0.2355812  0.0199285

 Al 
  0.9944112  0.5056532  0.0127481

 Al 
  0.9862903  0.7458975  0.2490298

 Al 
  0.2393644  0.4869091  0.2456859

 Al 
  0.2518638  0.7587186  0.9985595

 Al 
  0.0326791  0.9811284  0.4846468

 Al 
  0.9935399  0.2647802  0.7619041

 Al 
  0.2654757  0.0045146  0.7397010

 Al 
  0.2505965  0.2500062  0.4987340

 Al 
  0.9954099  0.5071432  0.5153978

 Al 
  0.0089562  0.7484085  0.7569204

 Al 
  0.2532437  0.4948715  0.7577892

 Al 
  0.2623038  0.7264566  0.5003044

 Al 
  0.4747413  0.4840132  0.0050530

 Al 
  0.5091023  0.7532362  0.2287981

 Al 
  0.7495099  0.4944087  0.2424434

 Al 
  0.7393990  0.7467304  0.9866863

 Al 
  0.5146540  0.0072385  0.4919558

 Al 
  0.4981127  0.2574043  0.7516175

 Al 
  0.7415054  0.0090738  0.7438629

 Al 
  0.7441884  0.2537572  0.5108930

 Al 
  0.5160091  0.5064328  0.4978169

 Al 
  0.5029305  0.7734172  0.7562076

 Al 
  0.7348114  0.5128830  0.7579254

 Al 
  0.7633063  0.7649300  0.5001398

