32 
charge = 0 
 Al 
  0.0112791  0.0001782  0.9929917

 Al 
  0.9873001  0.2495854  0.2562658

 Al 
  0.2573090  0.9950225  0.2472180

 Al 
  0.2573882  0.2445238  0.0002252

 Al 
  0.4895240  0.0124845  0.9950052

 Al 
  0.4849537  0.2519207  0.2518823

 Al 
  0.7520680  0.9726486  0.2430659

 Al 
  0.7384251  0.2354698  0.0198839

 Al 
  0.9949074  0.5061284  0.0117952

 Al 
  0.9852866  0.7463244  0.2489840

 Al 
  0.2397060  0.4868200  0.2449557

 Al 
  0.2530642  0.7596889  0.9989518

 Al 
  0.0312497  0.9828041  0.4834971

 Al 
  0.9937639  0.2645612  0.7615823

 Al 
  0.2641107  0.0043315  0.7395079

 Al 
  0.2496535  0.2508403  0.4994963

 Al 
  0.9958294  0.5070925  0.5146230

 Al 
  0.0094884  0.7475583  0.7577484

 Al 
  0.2528885  0.4944396  0.7568252

 Al 
  0.2643520  0.7261732  0.4999418

 Al 
  0.4750037  0.4847470  0.0064960

 Al 
  0.5090255  0.7515804  0.2298191

 Al 
  0.7496535  0.4945807  0.2413445

 Al 
  0.7391206  0.7454012  0.9862952

 Al 
  0.5148520  0.0070727  0.4921922

 Al 
  0.4972105  0.2577484  0.7524244

 Al 
  0.7413977  0.0092075  0.7441884

 Al 
  0.7436773  0.2524900  0.5104314

 Al 
  0.5169893  0.5062571  0.4966784

 Al 
  0.5017635  0.7741981  0.7558920

 Al 
  0.7348349  0.5129375  0.7579229

 Al 
  0.7639226  0.7651861  0.5018687

