32 
charge = 0 
 Al 
  0.0077570  0.9971672  0.9934310

 Al 
  0.9874524  0.2487810  0.2540246

 Al 
  0.2567150  0.9983738  0.2472761

 Al 
  0.2577100  0.2417962  0.0025259

 Al 
  0.4923234  0.0152802  0.9939557

 Al 
  0.4853188  0.2506213  0.2510358

 Al 
  0.7520308  0.9744988  0.2409955

 Al 
  0.7373694  0.2358695  0.0198480

 Al 
  0.9936959  0.5048649  0.0140389

 Al 
  0.9880130  0.7451760  0.2490199

 Al 
  0.2388879  0.4871739  0.2468739

 Al 
  0.2500866  0.7571531  0.9979976

 Al 
  0.0346555  0.9787647  0.4865378

 Al 
  0.9931736  0.2650067  0.7623781

 Al 
  0.2673593  0.0047708  0.7399795

 Al 
  0.2520024  0.2488194  0.4976499

 Al 
  0.9947713  0.5071308  0.5164522

 Al 
  0.0081234  0.7497451  0.7556495

 Al 
  0.2537511  0.4956042  0.7591542

 Al 
  0.2592904  0.7270036  0.5007896

 Al 
  0.4746065  0.4831605  0.0029120

 Al 
  0.5090268  0.7555938  0.2274194

 Al 
  0.7491832  0.4941946  0.2441760

 Al 
  0.7399225  0.7488045  0.9873670

 Al 
  0.5142134  0.0073808  0.4915846

 Al 
  0.4995000  0.2569006  0.7503428

 Al 
  0.7418568  0.0088820  0.7434892

 Al 
  0.7450807  0.2556569  0.5114821

 Al 
  0.5144077  0.5067187  0.4995099

 Al 
  0.5046062  0.7720138  0.7565492

 Al 
  0.7348411  0.5126875  0.7579043

 Al 
  0.7622692  0.7644077  0.4976474

