32 
charge = 0 
 Al 
  0.0062744  0.9960076  0.9936303

 Al 
  0.9875724  0.2483813  0.2531496

 Al 
  0.2564923  0.9996300  0.2472637

 Al 
  0.2575553  0.2407208  0.0034095

 Al 
  0.4935424  0.0162145  0.9936142

 Al 
  0.4856133  0.2501287  0.2507611

 Al 
  0.7520296  0.9755346  0.2401502

 Al 
  0.7370415  0.2361492  0.0196970

 Al 
  0.9932392  0.5042981  0.0147938

 Al 
  0.9892839  0.7446513  0.2489629

 Al 
  0.2386058  0.4874326  0.2477142

 Al 
  0.2489357  0.7560554  0.9976474

 Al 
  0.0358386  0.9773180  0.4878905

 Al 
  0.9929187  0.2650846  0.7626912

 Al 
  0.2684904  0.0049230  0.7401577

 Al 
  0.2529182  0.2480793  0.4969816

 Al 
  0.9943456  0.5070628  0.5170771

 Al 
  0.0075479  0.7506584  0.7547968

 Al 
  0.2540592  0.4961376  0.7599946

 Al 
  0.2573585  0.7274343  0.5010754

 Al 
  0.4746906  0.4827645  0.0015333

 Al 
  0.5088461  0.7570591  0.2266125

 Al 
  0.7488887  0.4940869  0.2453728

 Al 
  0.7403421  0.7502153  0.9878706

 Al 
  0.5138397  0.0074031  0.4913259

 Al 
  0.5004307  0.2565801  0.7494604

 Al 
  0.7422170  0.0087582  0.7433122

 Al 
  0.7457502  0.2569019  0.5117989

 Al 
  0.5132617  0.5069254  0.5006126

 Al 
  0.5056519  0.7709383  0.7566853

 Al 
  0.7349092  0.5124895  0.7578833

 Al 
  0.7615093  0.7639758  0.4960720

