32 
charge = 0 
 Al 
  0.0055245  0.9954433  0.9937342

 Al 
  0.9876442  0.2481647  0.2527214

 Al 
  0.2563833  0.0002327  0.2472477

 Al 
  0.2574167  0.2401923  0.0038377

 Al 
  0.4941674  0.0166353  0.9934595

 Al 
  0.4857940  0.2498923  0.2506398

 Al 
  0.7520358  0.9761126  0.2397307

 Al 
  0.7369016  0.2363187  0.0195931

 Al 
  0.9930164  0.5040048  0.0151354

 Al 
  0.9899498  0.7443802  0.2489196

 Al 
  0.2384783  0.4875848  0.2481449

 Al 
  0.2483751  0.7554948  0.9974803

 Al 
  0.0363843  0.9766398  0.4885884

 Al 
  0.9927900  0.2651020  0.7628459

 Al 
  0.2690176  0.0049923  0.7402468

 Al 
  0.2533649  0.2477278  0.4966660

 Al 
  0.9941352  0.5070096  0.5173642

 Al 
  0.0072546  0.7511175  0.7543735

 Al 
  0.2542015  0.4964160  0.7603893

 Al 
  0.2564242  0.7276645  0.5012066

 Al 
  0.4747834  0.4826197  0.0008663

 Al 
  0.5087162  0.7577546  0.2262438

 Al 
  0.7487179  0.4940448  0.2459792

 Al 
  0.7405722  0.7509207  0.9881367

 Al 
  0.5136330  0.0073920  0.4911947

 Al 
  0.5008935  0.2564267  0.7490112

 Al 
  0.7424348  0.0086976  0.7432429

 Al 
  0.7461029  0.2575132  0.5119326

 Al 
  0.5126689  0.5070343  0.5011522

 Al 
  0.5061494  0.7703641  0.7567262

 Al 
  0.7349574  0.5123731  0.7578721

 Al 
  0.7611096  0.7637369  0.4953134

