32 
charge = 0 
 Al 
  0.0084860  0.9977588  0.9933357

 Al 
  0.9874041  0.2489642  0.2544688

 Al 
  0.2568301  0.9977241  0.2472736

 Al 
  0.2577261  0.2423407  0.0020742

 Al 
  0.4917318  0.0147691  0.9941439

 Al 
  0.4852037  0.2508762  0.2511868

 Al 
  0.7520358  0.9740409  0.2414175

 Al 
  0.7375551  0.2357557  0.0198951

 Al 
  0.9939298  0.5051359  0.0136293

 Al 
  0.9874128  0.7454260  0.2490335

 Al 
  0.2390414  0.4870687  0.2464668

 Al 
  0.2506732  0.7576877  0.9981808

 Al 
  0.0340218  0.9795295  0.4858868

 Al 
  0.9932986  0.2649460  0.7622209

 Al 
  0.2667554  0.0046891  0.7398879

 Al 
  0.2515371  0.2492042  0.4980013

 Al 
  0.9949842  0.5071469  0.5161155

 Al 
  0.0084055  0.7492934  0.7560752

 Al 
  0.2535865  0.4953492  0.7587124

 Al 
  0.2602829  0.7268068  0.5006361

 Al 
  0.4746164  0.4834105  0.0036186

 Al 
  0.5090788  0.7548277  0.2278575

 Al 
  0.7493070  0.4942602  0.2435894

 Al 
  0.7397332  0.7481053  0.9871294

 Al 
  0.5143780  0.0073486  0.4917108

 Al 
  0.4990347  0.2570652  0.7507760

 Al 
  0.7417145  0.0089451  0.7435993

 Al 
  0.7447676  0.2550270  0.5113002

 Al 
  0.5149572  0.5066197  0.4989505

 Al 
  0.5040604  0.7725113  0.7564527

 Al 
  0.7348225  0.5127667  0.7579142

 Al 
  0.7626293  0.7645995  0.4984629

