32 
charge = 0 
 Al 
  0.9958690  0.9893570  0.9952205

 Al 
  0.9891639  0.2444471  0.2479989

 Al 
  0.2549998  0.0060467  0.2464556

 Al 
  0.2523204  0.2345441  0.0082100

 Al 
  0.5025803  0.0190337  0.9922417

 Al 
  0.4901490  0.2478640  0.2499010

 Al 
  0.7526682  0.9865044  0.2351950

 Al 
  0.7368398  0.2404646  0.0165301

 Al 
  0.9904324  0.4998181  0.0172986

 Al 
  0.9996386  0.7407653  0.2477068

 Al 
  0.2378558  0.4906168  0.2539095

 Al 
  0.2422108  0.7479927  0.9958913

 Al 
  0.0401775  0.9713009  0.4983565

 Al 
  0.9913779  0.2639176  0.7648223

 Al 
  0.2734827  0.0053512  0.7415301

 Al 
  0.2581283  0.2443468  0.4940325

 Al 
  0.9916774  0.5051854  0.5196822

 Al 
  0.0030951  0.7567249  0.7494258

 Al 
  0.2548995  0.5002933  0.7637122

 Al 
  0.2470026  0.7309279  0.5023328

 Al 
  0.4788426  0.4835565  0.9942268

 Al 
  0.5048055  0.7642567  0.2235644

 Al 
  0.7452007  0.4943468  0.2539317

 Al 
  0.7447404  0.7593188  0.9920115

 Al 
  0.5102903  0.0059787  0.4894325

 Al 
  0.5063734  0.2549255  0.7430771

 Al 
  0.7472935  0.0079192  0.7431105

 Al 
  0.7514876  0.2642753  0.5120959

 Al 
  0.5039652  0.5087892  0.5071803

 Al 
  0.5108212  0.7613076  0.7556940

 Al 
  0.7366096  0.5101592  0.7580046

 Al 
  0.7550022  0.7596617  0.4872160

