32 
charge = 0 
 Al 
  0.9980286  0.9905376  0.9948641

 Al 
  0.9887246  0.2454421  0.2489320

 Al 
  0.2553351  0.0050703  0.2467291

 Al 
  0.2539825  0.2356010  0.0074279

 Al 
  0.5006435  0.0189817  0.9924274

 Al 
  0.4888186  0.2481362  0.2499443

 Al 
  0.7524182  0.9836939  0.2360155

 Al 
  0.7365452  0.2391540  0.0175214

 Al 
  0.9909955  0.5008329  0.0171724

 Al 
  0.9973034  0.7415635  0.2480645

 Al 
  0.2378051  0.4897790  0.2525877

 Al 
  0.2434471  0.7497203  0.9961623

 Al 
  0.0398928  0.9718999  0.4960522

 Al 
  0.9916279  0.2644250  0.7643706

 Al 
  0.2728194  0.0053636  0.7411811

 Al 
  0.2572298  0.2449285  0.4943802

 Al 
  0.9921811  0.5057893  0.5193679

 Al 
  0.0041223  0.7555344  0.7504418

 Al 
  0.2549626  0.4993961  0.7632617

 Al 
  0.2486758  0.7301891  0.5021534

 Al 
  0.4774714  0.4829254  0.9953802

 Al 
  0.5060480  0.7631763  0.2238454

 Al 
  0.7462106  0.4941278  0.2521212

 Al 
  0.7436018  0.7575813  0.9910735

 Al 
  0.5111158  0.0065096  0.4898408

 Al 
  0.5052262  0.2551916  0.7444347

 Al 
  0.7458641  0.0081036  0.7430659

 Al 
  0.7501460  0.2629449  0.5123224

 Al 
  0.5061185  0.5083288  0.5059626

 Al 
  0.5100428  0.7635983  0.7561717

 Al 
  0.7360452  0.5107532  0.7579018

 Al 
  0.7565479  0.7607222  0.4888186

