32 
charge = 0 
 Al 
  0.0009962  0.9923259  0.9943976

 Al 
  0.9882196  0.2466474  0.2503267

 Al 
  0.2557571  0.0034169  0.2470138

 Al 
  0.2557769  0.2372593  0.0061618

 Al 
  0.4980348  0.0184533  0.9927454

 Al 
  0.4873447  0.2486907  0.2501126

 Al 
  0.7521855  0.9803017  0.2373571

 Al 
  0.7364487  0.2377531  0.0185733

 Al 
  0.9917677  0.5021435  0.0166613

 Al 
  0.9942528  0.7426848  0.2484840

 Al 
  0.2379288  0.4887741  0.2508044

 Al 
  0.2452651  0.7520420  0.9966116

 Al 
  0.0389424  0.9733169  0.4930003

 Al 
  0.9920474  0.2648805  0.7637654

 Al 
  0.2716091  0.0052893  0.7407826

 Al 
  0.2558351  0.2458888  0.4950931

 Al 
  0.9929199  0.5064254  0.5187515

 Al 
  0.0054218  0.7538315  0.7519269

 Al 
  0.2548215  0.4981833  0.7623608

 Al 
  0.2513923  0.7291644  0.5018464

 Al 
  0.4760309  0.4824452  0.9972860

 Al 
  0.5074006  0.7613484  0.2245273

 Al 
  0.7473801  0.4939805  0.2496696

 Al 
  0.7422392  0.7550455  0.9898545

 Al 
  0.5121888  0.0070281  0.4903879

 Al 
  0.5035778  0.2556173  0.7462675

 Al 
  0.7442317  0.0083412  0.7430498

 Al 
  0.7484357  0.2609425  0.5123781

 Al 
  0.5088609  0.5077657  0.5041768

 Al 
  0.5087298  0.7664918  0.7565950

 Al 
  0.7354710  0.5114809  0.7578437

 Al 
  0.7584872  0.7620415  0.4911861

