32 
charge = 0 
 Al 
  0.9944706  0.9886466  0.9954594

 Al 
  0.9894844  0.2437429  0.2474321

 Al 
  0.2547609  0.0065677  0.2462489

 Al 
  0.2510792  0.2339352  0.0086468

 Al 
  0.5038513  0.0189137  0.9921316

 Al 
  0.4911415  0.2477538  0.2499072

 Al 
  0.7528699  0.9884956  0.2347569

 Al 
  0.7371430  0.2414732  0.0157665

 Al 
  0.9900599  0.4991263  0.0172665

 Al 
  0.0012066  0.7402629  0.2474580

 Al 
  0.2379622  0.4912084  0.2547782

 Al 
  0.2414410  0.7468516  0.9957403

 Al 
  0.0401527  0.9711363  0.4998874

 Al 
  0.9912517  0.2634993  0.7651205

 Al 
  0.2738169  0.0053116  0.7417974

 Al 
  0.2586518  0.2440226  0.4938902

 Al 
  0.9913692  0.5047263  0.5198258

 Al 
  0.0023823  0.7574687  0.7488008

 Al 
  0.2547683  0.5008762  0.7639065

 Al 
  0.2460621  0.7313970  0.5024318

 Al 
  0.4798884  0.4840948  0.9935907

 Al 
  0.5038760  0.7648458  0.2234790

 Al 
  0.7444669  0.4945461  0.2551198

 Al 
  0.7455510  0.7603869  0.9926476

 Al 
  0.5097396  0.0055554  0.4891651

 Al 
  0.5070949  0.2547683  0.7421848

 Al 
  0.7483380  0.0077929  0.7431414

 Al 
  0.7524071  0.2650747  0.5118571

 Al 
  0.5024826  0.5091146  0.5079340

 Al 
  0.5112470  0.7597359  0.7553054

 Al 
  0.7370551  0.5097446  0.7581036

 Al 
  0.7539293  0.7589278  0.4862185

