32 
charge = 0 
 Al 
  0.9905636  0.9869016  0.9961759

 Al 
  0.9905945  0.2414732  0.2460163

 Al 
  0.2539466  0.0074910  0.2455287

 Al 
  0.2468257  0.2326085  0.0095243

 Al 
  0.5075281  0.0178642  0.9918086

 Al 
  0.4945931  0.2477588  0.2500644

 Al 
  0.7536112  0.9949619  0.2340577

 Al 
  0.7385575  0.2451834  0.0129585

 Al 
  0.9889337  0.4969828  0.0166465

 Al 
  0.0058957  0.7389609  0.2467130

 Al 
  0.2386404  0.4930857  0.2573053

 Al 
  0.2393768  0.7435152  0.9954124

 Al 
  0.0389931  0.9718393  0.5043896

 Al 
  0.9911094  0.2618299  0.7659955

 Al 
  0.2743528  0.0050245  0.7428283

 Al 
  0.2598473  0.2433506  0.4939038

 Al 
  0.9906304  0.5030964  0.5199545

 Al 
  0.0000804  0.7594018  0.7471907

 Al 
  0.2539218  0.5024912  0.7639906

 Al 
  0.2440758  0.7326840  0.5026533

 Al 
  0.4836072  0.4862049  0.9923246

 Al 
  0.5006534  0.7660042  0.2236845

 Al 
  0.7420029  0.4954235  0.2585404

 Al 
  0.7481573  0.7630761  0.9946191

 Al 
  0.5081382  0.0039602  0.4884028

 Al 
  0.5090466  0.2543599  0.7395847

 Al 
  0.7518613  0.0073759  0.7431612

 Al 
  0.7552398  0.2669930  0.5107260

 Al 
  0.4978318  0.5101468  0.5099228

 Al 
  0.5121269  0.7548748  0.7538340

 Al 
  0.7387493  0.5084377  0.7585664

 Al 
  0.7505062  0.7566408  0.4835144

