32 
charge = 0 
 Al 
  0.9893929  0.9864574  0.9964111

 Al 
  0.9910165  0.2406799  0.2456463

 Al 
  0.2536372  0.0075813  0.2452651

 Al 
  0.2452725  0.2323462  0.0096641

 Al 
  0.5086902  0.0173048  0.9916873

 Al 
  0.4958888  0.2478702  0.2501547

 Al 
  0.7538909  0.9972538  0.2340627

 Al 
  0.7391887  0.2466512  0.0118447

 Al 
  0.9885538  0.4962502  0.0162814

 Al 
  0.0074279  0.7386132  0.2464841

 Al 
  0.2389906  0.4937256  0.2581110

 Al 
  0.2387654  0.7424447  0.9953406

 Al 
  0.0382308  0.9724952  0.5058314

 Al 
  0.9911601  0.2611306  0.7662702

 Al 
  0.2743849  0.0048698  0.7432652

 Al 
  0.2601134  0.2432268  0.4940535

 Al 
  0.9904621  0.5024801  0.5199012

 Al 
  0.9992599  0.7599228  0.7467514

 Al 
  0.2534800  0.5029627  0.7638570

 Al 
  0.2436860  0.7330763  0.5027090

 Al 
  0.4850218  0.4870563  0.9921155

 Al 
  0.4994567  0.7661960  0.2238973

 Al 
  0.7411056  0.4958133  0.2596121

 Al 
  0.7490570  0.7637728  0.9953035

 Al 
  0.5076370  0.0033191  0.4881714

 Al 
  0.5096258  0.2542349  0.7387543

 Al 
  0.7531422  0.0072224  0.7431204

 Al 
  0.7561928  0.2674521  0.5102148

 Al 
  0.4962279  0.5104970  0.5104908

 Al 
  0.5122964  0.7532399  0.7532560

 Al 
  0.7394386  0.5079872  0.7587718

 Al 
  0.7493045  0.7558648  0.4827026

