32 
charge = 0 
 Al 
  0.9931142  0.9879994  0.9956982

 Al 
  0.9898297  0.2430090  0.2469123

 Al 
  0.2545072  0.0069836  0.2460237

 Al 
  0.2497426  0.2334068  0.0090132

 Al 
  0.5051025  0.0186761  0.9920251

 Al 
  0.4922145  0.2476994  0.2499381

 Al 
  0.7530964  0.9905722  0.2344141

 Al 
  0.7375303  0.2425932  0.0149188

 Al 
  0.9896862  0.4984233  0.0171440

 Al 
  0.0027759  0.7397913  0.2472056

 Al 
  0.2381268  0.4918197  0.2556359

 Al 
  0.2407133  0.7457230  0.9956116

 Al 
  0.0399510  0.9711660  0.5014083

 Al 
  0.9911613  0.2630117  0.7654176

 Al 
  0.2740718  0.0052436  0.7420994

 Al 
  0.2591146  0.2437491  0.4938221

 Al 
  0.9910896  0.5042226  0.5199186

 Al 
  0.0016422  0.7581667  0.7482179

 Al 
  0.2545641  0.5014405  0.7640179

 Al 
  0.2452614  0.7318462  0.5025172

 Al 
  0.4810344  0.4847186  0.9930622

 Al 
  0.5028711  0.7653309  0.2234728

 Al 
  0.7436872  0.4947911  0.2562868

 Al 
  0.7463937  0.7613744  0.9932924

 Al 
  0.5091951  0.0050790  0.4889028

 Al 
  0.5077806  0.2546235  0.7413036

 Al 
  0.7494518  0.0076605  0.7431649

 Al 
  0.7533414  0.2657975  0.5115489

 Al 
  0.5009653  0.5094513  0.5086431

 Al 
  0.5116046  0.7581333  0.7548636

 Al 
  0.7375588  0.5093188  0.7582310

 Al 
  0.7528216  0.7581778  0.4852718

