32 
charge = 0 
 Al 
  0.9883100  0.9860898  0.9966437

 Al 
  0.9914658  0.2398829  0.2453319

 Al 
  0.2533080  0.0075615  0.2449941

 Al 
  0.2436761  0.2321816  0.0097248

 Al 
  0.5098114  0.0166514  0.9915549

 Al 
  0.4972427  0.2480335  0.2502587

 Al 
  0.7541755  0.9995928  0.2341976

 Al 
  0.7398904  0.2482278  0.0106443

 Al 
  0.9881763  0.4955163  0.0158482

 Al 
  0.0089265  0.7383174  0.2462749

 Al 
  0.2394028  0.4943604  0.2588894

 Al 
  0.2381937  0.7414051  0.9952824

 Al 
  0.0372803  0.9733664  0.5072261

 Al 
  0.9912665  0.2603584  0.7665289

 Al 
  0.2743490  0.0046854  0.7437528

 Al 
  0.2603101  0.2431526  0.4942738

 Al 
  0.9903433  0.5018365  0.5197985

 Al 
  0.9984159  0.7603708  0.7463640

 Al 
  0.2529602  0.5033872  0.7636478

 Al 
  0.2434261  0.7334563  0.5027585

 Al 
  0.4865081  0.4879697  0.9920115

 Al 
  0.4982117  0.7662937  0.2241758

 Al 
  0.7401812  0.4962527  0.2606331

 Al 
  0.7499554  0.7643545  0.9960027

 Al 
  0.5071581  0.0026286  0.4879548

 Al 
  0.5101666  0.2541099  0.7379486

 Al 
  0.7544589  0.0070615  0.7430449

 Al 
  0.7571383  0.2678085  0.5096406

 Al 
  0.4946079  0.5108398  0.5110081

 Al 
  0.5124115  0.7516187  0.7526434

 Al 
  0.7401898  0.5075343  0.7590008

 Al 
  0.7480805  0.7550913  0.4819365

