32 
charge = 0 
 Al 
  0.9899683  0.9866702  0.9962935

 Al 
  0.9908024  0.2410772  0.2458245

 Al 
  0.2537944  0.0075504  0.2453975

 Al 
  0.2460559  0.2324650  0.0096047

 Al 
  0.5081135  0.0175969  0.9917492

 Al 
  0.4952329  0.2478083  0.2501077

 Al 
  0.7537498  0.9961004  0.2340441

 Al 
  0.7388632  0.2459037  0.0124128

 Al 
  0.9887444  0.4966165  0.0164732

 Al 
  0.0066655  0.7387815  0.2465967

 Al 
  0.2388075  0.4934063  0.2577113

 Al 
  0.2390661  0.7429768  0.9953752

 Al 
  0.0386355  0.9721412  0.5051148

 Al 
  0.9911279  0.2614895  0.7661341

 Al 
  0.2743775  0.0049515  0.7430399

 Al 
  0.2599896  0.2432825  0.4939694

 Al 
  0.9905401  0.5027919  0.5199334

 Al 
  0.9996733  0.7596716  0.7469643

 Al 
  0.2537114  0.5027325  0.7639337

 Al 
  0.2438642  0.7328820  0.5026818

 Al 
  0.4843052  0.4866219  0.9922071

 Al 
  0.5000619  0.7661118  0.2237822

 Al 
  0.7415586  0.4956116  0.2590812

 Al 
  0.7486065  0.7634387  0.9949594

 Al 
  0.5078845  0.0036459  0.4882852

 Al 
  0.5093411  0.2542968  0.7391664

 Al 
  0.7524962  0.0073004  0.7431451

 Al 
  0.7557163  0.2672355  0.5104784

 Al 
  0.4970323  0.5103225  0.5102136

 Al 
  0.5122185  0.7540555  0.7535506

 Al 
  0.7390859  0.5082137  0.7586654

 Al 
  0.7499084  0.7562534  0.4831036

