32 
charge = 0 
 Al 
  0.9888397  0.9862631  0.9965286

 Al 
  0.9912381  0.2402814  0.2454817

 Al 
  0.2534751  0.0075850  0.2451302

 Al 
  0.2444780  0.2322521  0.0097050

 Al 
  0.5092570  0.0169893  0.9916229

 Al 
  0.4965596  0.2479456  0.2502054

 Al 
  0.7540320  0.9984184  0.2341134

 Al 
  0.7395315  0.2474271  0.0112556

 Al 
  0.9883644  0.4958839  0.0160735

 Al 
  0.0081828  0.7384585  0.2463764

 Al 
  0.2391899  0.4940436  0.2585033

 Al 
  0.2384746  0.7419212  0.9953096

 Al 
  0.0377791  0.9729036  0.5065356

 Al 
  0.9912059  0.2607532  0.7664014

 Al 
  0.2743750  0.0047819  0.7435028

 Al 
  0.2602210  0.2431835  0.4941550

 Al 
  0.9903965  0.5021620  0.5198555

 Al 
  0.9988404  0.7601567  0.7465509

 Al 
  0.2532300  0.5031818  0.7637617

 Al 
  0.2435412  0.7332669  0.5027350

 Al 
  0.4857569  0.4875056  0.9920511

 Al 
  0.4988392  0.7662566  0.2240285

 Al 
  0.7406465  0.4960262  0.2601294

 Al 
  0.7495075  0.7640797  0.9956512

 Al 
  0.5073944  0.0029801  0.4880612

 Al 
  0.5099005  0.2541718  0.7383471

 Al 
  0.7537968  0.0071432  0.7430870

 Al 
  0.7566667  0.2676439  0.5099352

 Al 
  0.4954185  0.5106690  0.5107569

 Al 
  0.5123608  0.7524269  0.7529541

 Al 
  0.7398062  0.5077608  0.7588832

 Al 
  0.7486944  0.7554775  0.4823140

