32 
charge = 0 
 Al 
  0.9854265  0.9854636  0.9974110

 Al 
  0.9932503  0.2372160  0.2447404

 Al 
  0.2520123  0.0066655  0.2440436

 Al 
  0.2380538  0.2324179  0.0093028

 Al 
  0.5133100  0.0137889  0.9909559

 Al 
  0.5022610  0.2489617  0.2506893

 Al 
  0.7551087  0.0078734  0.2357408

 Al 
  0.7427652  0.2544032  0.0058759

 Al 
  0.9869140  0.4930387  0.0139288

 Al 
  0.0136949  0.7377506  0.2457948

 Al 
  0.2412999  0.4963962  0.2613113

 Al 
  0.2365378  0.7381244  0.9951587

 Al 
  0.0325615  0.9780407  0.5115526

 Al 
  0.9921501  0.2571358  0.7672182

 Al 
  0.2737377  0.0037820  0.7458764

 Al 
  0.2604302  0.2432788  0.4955485

 Al 
  0.9903879  0.4994926  0.5190696

 Al 
  0.9953591  0.7612222  0.7454359

 Al 
  0.2505643  0.5043909  0.7624090

 Al 
  0.2434100  0.7348052  0.5029330

 Al 
  0.4920536  0.4915400  0.9924286

 Al 
  0.4936736  0.7659225  0.2256039

 Al 
  0.7368596  0.4981523  0.2636602

 Al 
  0.7528798  0.7653582  0.9985867

 Al 
  0.5057287  0.9998762  0.4873744

 Al 
  0.5117309  0.2536496  0.7354153

 Al 
  0.7591221  0.0064390  0.7424496

 Al 
  0.7602606  0.2681451  0.5072199

 Al 
  0.4890278  0.5118583  0.5123620

 Al 
  0.5124041  0.7463207  0.7503490

 Al 
  0.7432639  0.5059737  0.7598980

 Al 
  0.7437577  0.7525172  0.4796594

