32 
charge = 0 
 Al 
  0.9873298  0.9858027  0.9968714

 Al 
  0.9919435  0.2390896  0.2450795

 Al 
  0.2529578  0.0074328  0.2447193

 Al 
  0.2420573  0.2321197  0.0097037

 Al 
  0.5108844  0.0159151  0.9914051

 Al 
  0.4986449  0.2482464  0.2503737

 Al 
  0.7544589  0.0019615  0.2344674

 Al 
  0.7406552  0.2499022  0.0093646

 Al 
  0.9878013  0.4947874  0.0153557

 Al 
  0.0103770  0.7380773  0.2460918

 Al 
  0.2398767  0.4949792  0.2596357

 Al 
  0.2376640  0.7404052  0.9952379

 Al 
  0.0361455  0.9744518  0.5085615

 Al 
  0.9914361  0.2595169  0.7667665

 Al 
  0.2742488  0.0044676  0.7442961

 Al 
  0.2604351  0.2431291  0.4945609

 Al 
  0.9902789  0.5011744  0.5196500

 Al 
  0.9975533  0.7607346  0.7460311

 Al 
  0.2523625  0.5037585  0.7633682

 Al 
  0.2432887  0.7338325  0.5028068

 Al 
  0.4880513  0.4889387  0.9920103

 Al 
  0.4969333  0.7662975  0.2245161

 Al 
  0.7392369  0.4967403  0.2615935

 Al 
  0.7508378  0.7648124  0.9967205

 Al 
  0.5067088  0.0018898  0.4877593

 Al 
  0.5106678  0.2539837  0.7371739

 Al 
  0.7557967  0.0068920  0.7429298

 Al 
  0.7580677  0.2680536  0.5090095

 Al 
  0.4929867  0.5111665  0.5114697

 Al 
  0.5124709  0.7500309  0.7520049

 Al 
  0.7410017  0.5070801  0.7592471

 Al 
  0.7468417  0.7543290  0.4812188

