32 
charge = 0 
 Al 
  0.9851517  0.9854636  0.9975125

 Al 
  0.9935313  0.2368744  0.2447255

 Al 
  0.2518130  0.0064428  0.2439137

 Al 
  0.2372840  0.2325553  0.0091654

 Al 
  0.5137456  0.0133273  0.9908519

 Al 
  0.5029850  0.2491312  0.2507549

 Al 
  0.7552200  0.0090305  0.2360947

 Al 
  0.7432083  0.2553364  0.0051408

 Al 
  0.9867519  0.4927108  0.0136219

 Al 
  0.0142901  0.7377345  0.2457688

 Al 
  0.2416217  0.4966474  0.2616059

 Al 
  0.2363497  0.7377135  0.9951450

 Al 
  0.0317311  0.9788946  0.5120798

 Al 
  0.9923457  0.2566185  0.7672764

 Al 
  0.2735966  0.0036199  0.7462279

 Al 
  0.2603757  0.2433419  0.4957861

 Al 
  0.9904596  0.4991622  0.5189186

 Al 
  0.9949223  0.7612408  0.7453554

 Al 
  0.2501596  0.5044602  0.7621801

 Al 
  0.2435003  0.7350144  0.5029627

 Al 
  0.4928593  0.4920821  0.9925783

 Al 
  0.4930263  0.7657851  0.2258564

 Al 
  0.7363930  0.4984642  0.2640055

 Al 
  0.7532474  0.7653606  0.9989716

 Al 
  0.5055591  0.9994518  0.4873199

 Al 
  0.5119103  0.2535778  0.7350997

 Al 
  0.7597644  0.0063450  0.7423184

 Al 
  0.7606690  0.2680709  0.5068338

 Al 
  0.4882679  0.5119648  0.5124907

 Al 
  0.5123571  0.7456413  0.7500173

 Al 
  0.7437503  0.5057609  0.7600267

 Al 
  0.7431563  0.7521781  0.4793933

