32 
charge = 0 
 Al 
  0.9843003  0.9859413  0.9980880

 Al 
  0.9953332  0.2351901  0.2450200

 Al 
  0.2505891  0.0047275  0.2432070

 Al 
  0.2330924  0.2338931  0.0080083

 Al 
  0.5159794  0.0104475  0.9901465

 Al 
  0.5071593  0.2502611  0.2511324

 Al 
  0.7557052  0.0155611  0.2388100

 Al 
  0.7458653  0.2608967  0.0006386

 Al 
  0.9859512  0.4910079  0.0117544

 Al 
  0.0172256  0.7379659  0.2459024

 Al 
  0.2437454  0.4978355  0.2630377

 Al 
  0.2354995  0.7356109  0.9950374

 Al 
  0.0261386  0.9847520  0.5146490

 Al 
  0.9938629  0.2533229  0.7673234

 Al 
  0.2725162  0.0024912  0.7485174

 Al 
  0.2597124  0.2439100  0.4974184

 Al 
  0.9912220  0.4973133  0.5177702

 Al 
  0.9923952  0.7607544  0.7451215

 Al 
  0.2474989  0.5044490  0.7606529

 Al 
  0.2443530  0.7364648  0.5031991

 Al 
  0.4975410  0.4953876  0.9938605

 Al 
  0.4893037  0.7645673  0.2275593

 Al 
  0.7337916  0.5004839  0.2655425

 Al 
  0.7550604  0.7646193  0.0013415

 Al 
  0.5047225  0.9968578  0.4871591

 Al 
  0.5127382  0.2531063  0.7335181

 Al 
  0.7632716  0.0057695  0.7413123

 Al 
  0.7628249  0.2669868  0.5044131

 Al 
  0.4841085  0.5122939  0.5128892

 Al 
  0.5118645  0.7421613  0.7481325

 Al 
  0.7468380  0.5045889  0.7606839

 Al 
  0.7397876  0.7503861  0.4781533

