32 
charge = 0 
 Al 
  0.9844723  0.9866863  0.9984506

 Al 
  0.9966425  0.2345094  0.2455732

 Al 
  0.2497772  0.0033253  0.2428246

 Al 
  0.2308462  0.2352235  0.0069898

 Al 
  0.5171081  0.0085169  0.9896218

 Al 
  0.5096406  0.2510767  0.2513527

 Al 
  0.7558339  0.0193827  0.2410834

 Al 
  0.7475323  0.2643594  0.9976746

 Al 
  0.9856468  0.4902022  0.0105750

 Al 
  0.0184978  0.7384102  0.2462935

 Al 
  0.2453010  0.4982835  0.2636404

 Al 
  0.2352049  0.7345589  0.9949124

 Al 
  0.0219828  0.9891627  0.5157591

 Al 
  0.9951809  0.2510148  0.7670091

 Al 
  0.2716202  0.0015927  0.7501584

 Al 
  0.2589909  0.2444297  0.4986387

 Al 
  0.9920276  0.4962725  0.5167690

 Al 
  0.9908532  0.7598559  0.7451525

 Al 
  0.2455708  0.5040382  0.7595602

 Al 
  0.2450844  0.7376863  0.5034206

 Al 
  0.5003923  0.4975954  0.9950089

 Al 
  0.4870477  0.7634214  0.2288389

 Al 
  0.7323338  0.5019368  0.2660413

 Al 
  0.7558722  0.7634474  0.0029677

 Al 
  0.5042956  0.9951525  0.4872185

 Al 
  0.5130662  0.2527400  0.7327793

 Al 
  0.7651540  0.0053921  0.7404695

 Al 
  0.7639696  0.2656997  0.5027734

 Al 
  0.4818066  0.5121640  0.5127791

 Al 
  0.5113658  0.7404708  0.7470459

 Al 
  0.7490075  0.5039429  0.7609289

 Al 
  0.7378719  0.7494493  0.4776880

