32 
charge = 0 
 Al 
  0.9846010  0.9869214  0.9985409

 Al 
  0.9969828  0.2344030  0.2457539

 Al 
  0.2495768  0.0029541  0.2427429

 Al 
  0.2303648  0.2356047  0.0067150

 Al 
  0.5173482  0.0080429  0.9894857

 Al 
  0.5102099  0.2512846  0.2514022

 Al 
  0.7558438  0.0202589  0.2416972

 Al 
  0.7479258  0.2651713  0.9969531

 Al 
  0.9856071  0.4900512  0.0102978

 Al 
  0.0187243  0.7385525  0.2464321

 Al 
  0.2457032  0.4983516  0.2637456

 Al 
  0.2351653  0.7343374  0.9948728

 Al 
  0.0209049  0.9903074  0.5159596

 Al 
  0.9955448  0.2504307  0.7668804

 Al 
  0.2713789  0.0013502  0.7505767

 Al 
  0.2587805  0.2445721  0.4989518

 Al 
  0.9922615  0.4960423  0.5164893

 Al 
  0.9904906  0.7595614  0.7451772

 Al 
  0.2450757  0.5038884  0.7592854

 Al 
  0.2452750  0.7380303  0.5034850

 Al 
  0.5010606  0.4981461  0.9953245

 Al 
  0.4865168  0.7630959  0.2291743

 Al 
  0.7320120  0.5023093  0.2661019

 Al 
  0.7560257  0.7630773  0.0033798

 Al 
  0.5041978  0.9947366  0.4872531

 Al 
  0.5131219  0.2526397  0.7326345

 Al 
  0.7655574  0.0053005  0.7402443

 Al 
  0.7642196  0.2653148  0.5023662

 Al 
  0.4812967  0.5120848  0.5127036

 Al 
  0.5112210  0.7401280  0.7468009

 Al 
  0.7495594  0.5038030  0.7609549

 Al 
  0.7374437  0.7492488  0.4776174

