32 
charge = 0 
 Al 
  0.9843782  0.9864697  0.9983602

 Al 
  0.9963071  0.2346431  0.2454099

 Al 
  0.2499777  0.0036892  0.2429125

 Al 
  0.2313598  0.2348609  0.0072583

 Al 
  0.5168519  0.0089958  0.9897555

 Al 
  0.5090491  0.2508700  0.2513007

 Al 
  0.7558165  0.0184731  0.2404869

 Al 
  0.7471289  0.2635228  0.9984060

 Al 
  0.9857024  0.4903742  0.0108608

 Al 
  0.0182355  0.7382790  0.2461722

 Al 
  0.2449037  0.4981993  0.2635167

 Al 
  0.2352582  0.7347965  0.9949495

 Al 
  0.0230459  0.9880328  0.5155277

 Al 
  0.9948307  0.2515965  0.7671167

 Al 
  0.2718554  0.0018279  0.7497438

 Al 
  0.2591901  0.2442911  0.4983268

 Al 
  0.9918061  0.4965163  0.5170375

 Al 
  0.9912257  0.7601233  0.7451339

 Al 
  0.2460621  0.5041693  0.7598349

 Al 
  0.2448963  0.7373583  0.5033600

 Al 
  0.4997055  0.4970447  0.9947045

 Al 
  0.4875922  0.7637308  0.2285097

 Al 
  0.7326729  0.5015668  0.2659559

 Al 
  0.7556977  0.7637877  0.0025580

 Al 
  0.5043958  0.9955732  0.4871912

 Al 
  0.5130006  0.2528353  0.7329390

 Al 
  0.7647233  0.0054861  0.7406911

 Al 
  0.7637048  0.2660611  0.5031818

 Al 
  0.4823425  0.5122246  0.5128360

 Al 
  0.5115019  0.7408445  0.7473021

 Al 
  0.7484592  0.5040926  0.7608868

 Al 
  0.7383211  0.7496634  0.4777771

