32 
charge = 0 
 Al 
  0.9851703  0.9877358  0.9988169

 Al 
  0.9980385  0.2342409  0.2463937

 Al 
  0.2489889  0.0018081  0.2425313

 Al 
  0.2291260  0.2368546  0.0058524

 Al 
  0.5179706  0.0066457  0.9890748

 Al 
  0.5117791  0.2519108  0.2515346

 Al 
  0.7558252  0.0226969  0.2436303

 Al 
  0.7490409  0.2674509  0.9948480

 Al 
  0.9855849  0.4897319  0.0095193

 Al 
  0.0191797  0.7390500  0.2469457

 Al 
  0.2469333  0.4984456  0.2639510

 Al 
  0.2351270  0.7337632  0.9947267

 Al 
  0.0175994  0.9938209  0.5163779

 Al 
  0.9967118  0.2486671  0.7663692

 Al 
  0.2706091  0.0005817  0.7518390

 Al 
  0.2580850  0.2450200  0.4999084

 Al 
  0.9930375  0.4954210  0.5155685

 Al 
  0.9894547  0.7585120  0.7452836

 Al 
  0.2435672  0.5033328  0.7584625

 Al 
  0.2458492  0.7391676  0.5036991

 Al 
  0.5029516  0.4997884  0.9963282

 Al 
  0.4849983  0.7620328  0.2302213

 Al 
  0.7311593  0.5034466  0.2661329

 Al 
  0.7563846  0.7617952  0.0046272

 Al 
  0.5039119  0.9935238  0.4874066

 Al 
  0.5132308  0.2523204  0.7322954

 Al 
  0.7665920  0.0050307  0.7395414

 Al 
  0.7648916  0.2640166  0.5011584

 Al 
  0.4799342  0.5117333  0.5123632

 Al 
  0.5107458  0.7392864  0.7461400

 Al 
  0.7512338  0.5034392  0.7609351

 Al 
  0.7362866  0.7487265  0.4775160

