32 
charge = 0 
 Al 
  0.9870279  0.9898149  0.9994146

 Al 
  0.0003255  0.2346629  0.2480694

 Al 
  0.2478565  0.9994468  0.2422727

 Al 
  0.2276137  0.2398037  0.0040444

 Al 
  0.5188295  0.0040035  0.9882518

 Al 
  0.5142406  0.2531842  0.2517313

 Al 
  0.7556297  0.0266719  0.2478293

 Al 
  0.7509393  0.2711660  0.9909967

 Al 
  0.9860490  0.4897555  0.0082446

 Al 
  0.0190857  0.7402987  0.2484271

 Al 
  0.2494691  0.4981647  0.2638582

 Al 
  0.2353881  0.7329872  0.9943208

 Al 
  0.0107470  0.0010816  0.5163915

 Al 
  0.9993750  0.2451104  0.7647431

 Al 
  0.2688530  0.9988652  0.7543686

 Al 
  0.2564106  0.2459680  0.5018415

 Al 
  0.9948951  0.4945225  0.5133384

 Al 
  0.9876528  0.7557175  0.7455831

 Al 
  0.2404683  0.5017858  0.7568499

 Al 
  0.2469135  0.7419571  0.5042250

 Al 
  0.5062039  0.5030568  0.9985347

 Al 
  0.4822967  0.7595131  0.2325033

 Al 
  0.7300035  0.5057967  0.2655599

 Al 
  0.7566989  0.7585231  0.0071803

 Al 
  0.5033018  0.9912999  0.4879028

 Al 
  0.5131924  0.2515779  0.7320492

 Al 
  0.7678296  0.0045146  0.7381083

 Al 
  0.7658891  0.2608472  0.4988305

 Al 
  0.4779726  0.5105094  0.5111727

 Al 
  0.5096159  0.7383521  0.7451723

 Al 
  0.7546310  0.5030159  0.7603782

 Al 
  0.7345948  0.7480249  0.4778043

