32 
charge = 0 
 Al 
  0.9882518  0.9910512  0.9997500

 Al 
  0.0015767  0.2352668  0.2490755

 Al 
  0.2473108  0.9982748  0.2422256

 Al 
  0.2273613  0.2414819  0.0031372

 Al 
  0.5190869  0.0027672  0.9878508

 Al 
  0.5151020  0.2538364  0.2517945

 Al 
  0.7554836  0.0281867  0.2500495

 Al 
  0.7517140  0.2725335  0.9892926

 Al 
  0.9865663  0.4901317  0.0077707

 Al 
  0.0185412  0.7410190  0.2493911

 Al 
  0.2507376  0.4977934  0.2635501

 Al 
  0.2356752  0.7327669  0.9940647

 Al 
  0.0072633  0.0047560  0.5159856

 Al 
  0.0008675  0.2433308  0.7636243

 Al 
  0.2678395  0.9979258  0.7556161

 Al 
  0.2554391  0.2464358  0.5028018

 Al 
  0.9959631  0.4942528  0.5120019

 Al 
  0.9868930  0.7540072  0.7457514

 Al 
  0.2388941  0.5008156  0.7560641

 Al 
  0.2473454  0.7436278  0.5045419

 Al 
  0.5075677  0.5046805  0.9997042

 Al 
  0.4811111  0.7580664  0.2337434

 Al 
  0.7297238  0.5069984  0.2649683

 Al 
  0.7567051  0.7565739  0.0084835

 Al 
  0.5029454  0.9903198  0.4882394

 Al 
  0.5130538  0.2511546  0.7321420

 Al 
  0.7680041  0.0042547  0.7374375

 Al 
  0.7662071  0.2590317  0.4977291

 Al 
  0.4773910  0.5096319  0.5103374

 Al 
  0.5089748  0.7382060  0.7448814

 Al 
  0.7563277  0.5029801  0.7598052

 Al 
  0.7340763  0.7478380  0.4781904

