32 
charge = 0 
 Al 
  0.9906020  0.9933357  0.0003713

 Al 
  0.0038414  0.2368818  0.2509245

 Al 
  0.2464296  0.9964111  0.2422628

 Al 
  0.2277214  0.2445374  0.0016843

 Al 
  0.5193035  0.0008453  0.9872395

 Al 
  0.5159534  0.2549453  0.2518427

 Al 
  0.7552114  0.0299354  0.2537907

 Al 
  0.7527424  0.2739815  0.9868521

 Al 
  0.9878793  0.4913284  0.0072385

 Al 
  0.0169212  0.7423110  0.2513093

 Al 
  0.2527709  0.4968591  0.2626368

 Al 
  0.2363596  0.7326283  0.9935721

 Al 
  0.0015309  0.0107569  0.5146948

 Al 
  0.0035568  0.2404312  0.7613348

 Al 
  0.2659052  0.9962626  0.7576320

 Al 
  0.2536483  0.2471561  0.5043599

 Al 
  0.9979048  0.4940708  0.5094265

 Al 
  0.9858584  0.7507958  0.7460262

 Al 
  0.2362890  0.4989580  0.7547881

 Al 
  0.2478244  0.7467960  0.5051557

 Al 
  0.5094463  0.5073301  0.0016670

 Al 
  0.4793995  0.7554218  0.2359561

 Al 
  0.7297473  0.5089909  0.2635674

 Al 
  0.7565715  0.7529776  0.0106765

 Al 
  0.5022400  0.9889449  0.4889201

 Al 
  0.5126516  0.2503935  0.7326172

 Al 
  0.7675932  0.0037869  0.7365106

 Al 
  0.7664187  0.2558462  0.4960485

 Al 
  0.4770457  0.5077855  0.5086444

 Al 
  0.5078189  0.7383446  0.7446970

 Al 
  0.7590837  0.5031929  0.7583585

 Al 
  0.7337273  0.7477600  0.4791941

