32 
charge = 0 
 Al 
  0.9901069  0.9928617  0.0002401

 Al 
  0.0033711  0.2364970  0.2505433

 Al 
  0.2466017  0.9967712  0.2422454

 Al 
  0.2275692  0.2439038  0.0019665

 Al 
  0.5192800  0.0012153  0.9873533

 Al 
  0.5158433  0.2547213  0.2518403

 Al 
  0.7552671  0.0296681  0.2530469

 Al 
  0.7525630  0.2737798  0.9872977

 Al 
  0.9875724  0.4910339  0.0073189

 Al 
  0.0173147  0.7420462  0.2508960

 Al 
  0.2523774  0.4970756  0.2628595

 Al 
  0.2362037  0.7326333  0.9936748

 Al 
  0.0026595  0.0095824  0.5150141

 Al 
  0.0030023  0.2409992  0.7618311

 Al 
  0.2663185  0.9966029  0.7572373

 Al 
  0.2540208  0.2470212  0.5040543

 Al 
  0.9975038  0.4940807  0.5099772

 Al 
  0.9860403  0.7514665  0.7459730

 Al 
  0.2368039  0.4993503  0.7550394

 Al 
  0.2477575  0.7461277  0.5050245

 Al 
  0.5091109  0.5068103  0.0012784

 Al 
  0.4797139  0.7559700  0.2354995

 Al 
  0.7296904  0.5085973  0.2638855

 Al 
  0.7566086  0.7537226  0.0102371

 Al 
  0.5023934  0.9891899  0.4887716

 Al 
  0.5127481  0.2505495  0.7324910

 Al 
  0.7677479  0.0038872  0.7366702

 Al 
  0.7664126  0.2564861  0.4963640

 Al 
  0.4770519  0.5081914  0.5090082

 Al 
  0.5080565  0.7382840  0.7447045

 Al 
  0.7585454  0.5031236  0.7586988

 Al 
  0.7337446  0.7477538  0.4789565

