32 
charge = 0 
 Al 
  0.9921316  0.9947911  0.0007834

 Al 
  0.0052968  0.2382196  0.2520853

 Al 
  0.2459259  0.9953864  0.2423482

 Al 
  0.2284219  0.2464878  0.0008811

 Al 
  0.5193233  0.9997859  0.9869375

 Al 
  0.5161032  0.2556123  0.2518254

 Al 
  0.7550455  0.0304688  0.2559613

 Al 
  0.7532040  0.2743144  0.9856616

 Al 
  0.9889263  0.4923729  0.0070801

 Al 
  0.0155487  0.7431204  0.2526236

 Al 
  0.2538921  0.4961314  0.2618546

 Al 
  0.2368794  0.7326803  0.9932503

 Al 
  0.9982464  0.0141503  0.5135538

 Al 
  0.0052572  0.2387840  0.7597458

 Al 
  0.2645896  0.9952255  0.7587805

 Al 
  0.2524949  0.2475274  0.5052473

 Al 
  0.9991300  0.4941179  0.5076766

 Al 
  0.9853918  0.7487340  0.7461747

 Al 
  0.2347842  0.4977328  0.7540394

 Al 
  0.2479333  0.7488825  0.5055752

 Al 
  0.5103225  0.5088449  0.0028018

 Al 
  0.4785543  0.7537350  0.2373595

 Al 
  0.7300790  0.5101393  0.2625142

 Al 
  0.7564403  0.7507017  0.0119883

 Al 
  0.5017425  0.9883087  0.4893990

 Al 
  0.5123150  0.2499233  0.7330887

 Al 
  0.7669125  0.0034639  0.7361356

 Al 
  0.7663160  0.2539689  0.4951797

 Al 
  0.4772202  0.5064749  0.5074984

 Al 
  0.5070912  0.7386058  0.7447639

 Al 
  0.7606430  0.5034652  0.7571779

 Al 
  0.7338350  0.7478429  0.4800084

