32 
charge = 0 
 Al 
  0.9957737  0.9981919  0.0018440

 Al 
  0.0088535  0.2423432  0.2546941

 Al 
  0.2448691  0.9934075  0.2426897

 Al 
  0.2314502  0.2511843  0.9993033

 Al 
  0.5191315  0.9976363  0.9865576

 Al 
  0.5154336  0.2570801  0.2516150

 Al 
  0.7546706  0.0300752  0.2603522

 Al 
  0.7538785  0.2735199  0.9837533

 Al 
  0.9919781  0.4955745  0.0071519

 Al 
  0.0113856  0.7450337  0.2560331

 Al 
  0.2560257  0.4941055  0.2594476

 Al 
  0.2383137  0.7331778  0.9925004

 Al 
  0.9915264  0.0208257  0.5099215

 Al 
  0.0092495  0.2354636  0.7556717

 Al 
  0.2611084  0.9928147  0.7611789

 Al 
  0.2497401  0.2481214  0.5070801

 Al 
  0.0019900  0.4946500  0.5030914

 Al 
  0.9848411  0.7439421  0.7464346

 Al 
  0.2316766  0.4947639  0.7523365

 Al 
  0.2475855  0.7539701  0.5066717

 Al 
  0.5115811  0.5119214  0.0050629

 Al 
  0.4771892  0.7497525  0.2408086

 Al 
  0.7318313  0.5124858  0.2596765

 Al 
  0.7561024  0.7455163  0.0149077

 Al 
  0.5003886  0.9874969  0.4907146

 Al 
  0.5112804  0.2488726  0.7346815

 Al 
  0.7641132  0.0024974  0.7359846

 Al 
  0.7652332  0.2503193  0.4937614

 Al 
  0.4787003  0.5030271  0.5046780

 Al 
  0.5053797  0.7395339  0.7453591

 Al 
  0.7637530  0.5043476  0.7535493

 Al 
  0.7349661  0.7483479  0.4824860

