32 
charge = 0 
 Al 
  0.9977551  0.0000124  0.0024912

 Al 
  0.0108794  0.2452267  0.2559824

 Al 
  0.2443740  0.9925944  0.2429632

 Al 
  0.2339934  0.2538327  0.9986189

 Al 
  0.5189087  0.9966301  0.9866108

 Al 
  0.5144795  0.2577929  0.2513737

 Al 
  0.7544589  0.0288154  0.2621925

 Al 
  0.7540654  0.2721709  0.9832038

 Al 
  0.9939743  0.4977254  0.0074328

 Al 
  0.0085751  0.7461178  0.2581023

 Al 
  0.2568561  0.4928593  0.2577979

 Al 
  0.2392196  0.7336852  0.9921143

 Al 
  0.9885290  0.0235261  0.5073338

 Al 
  0.0113967  0.2340169  0.7532969

 Al 
  0.2589228  0.9915116  0.7623274

 Al 
  0.2482414  0.2482513  0.5079179

 Al 
  0.0035233  0.4951884  0.5002401

 Al 
  0.9849154  0.7414670  0.7465274

 Al 
  0.2302807  0.4931390  0.7513786

 Al 
  0.2470088  0.7567942  0.5073462

 Al 
  0.5117927  0.5132568  0.0059799

 Al 
  0.4768167  0.7475967  0.2428704

 Al 
  0.7334290  0.5134944  0.2579872

 Al 
  0.7559465  0.7429051  0.0163853

 Al 
  0.4995198  0.9874957  0.4915771

 Al 
  0.5105477  0.2483367  0.7358547

 Al 
  0.7618534  0.0017846  0.7364091

 Al 
  0.7639944  0.2490298  0.4934298

 Al 
  0.4801520  0.5009603  0.5031100

 Al 
  0.5044367  0.7401502  0.7459111

 Al 
  0.7650611  0.5048537  0.7510173

 Al 
  0.7360935  0.7487785  0.4842174

