32 
charge = 0 
 Al 
  0.9942218  0.9967526  0.0013749

 Al 
  0.0073152  0.2404163  0.2536137

 Al 
  0.2452973  0.9941748  0.2425202

 Al 
  0.2299193  0.2491646  0.9999220

 Al 
  0.5192478  0.9984988  0.9866541

 Al 
  0.5158878  0.2564749  0.2517375

 Al 
  0.7548290  0.0305307  0.2586233

 Al 
  0.7536533  0.2741213  0.9844203

 Al 
  0.9905821  0.4940919  0.0070492

 Al 
  0.0133112  0.7442144  0.2545270

 Al 
  0.2552077  0.4950151  0.2605675

 Al 
  0.2376689  0.7329018  0.9928159

 Al 
  0.9942057  0.0182293  0.5116331

 Al 
  0.0075541  0.2367779  0.7574551

 Al 
  0.2626627  0.9938369  0.7602074

 Al 
  0.2509170  0.2479197  0.5063450

 Al 
  0.0007797  0.4943530  0.5051322

 Al 
  0.9849785  0.7459569  0.7463393

 Al 
  0.2329204  0.4960361  0.7530605

 Al 
  0.2478405  0.7517821  0.5061841

 Al 
  0.5111801  0.5107012  0.0041792

 Al 
  0.4776645  0.7514455  0.2393037

 Al 
  0.7309131  0.5115551  0.2609339

 Al 
  0.7562447  0.7476783  0.0136949

 Al 
  0.5010000  0.9877234  0.4901181

 Al 
  0.5117643  0.2493094  0.7339204

 Al 
  0.7655104  0.0029528  0.7359128

 Al 
  0.7658557  0.2517078  0.4942490

 Al 
  0.4778897  0.5045518  0.5058920

 Al 
  0.5061098  0.7390983  0.7450361

 Al 
  0.7625316  0.5039466  0.7552448

 Al 
  0.7343374  0.7480855  0.4813314

