32 
charge = 0 
 Al 
  0.9967799  0.9991189  0.0021657

 Al 
  0.0098733  0.2437441  0.2553636

 Al 
  0.2446104  0.9929706  0.2428197

 Al 
  0.2326531  0.2525184  0.9989406

 Al 
  0.5190288  0.9971128  0.9865564

 Al 
  0.5150030  0.2574526  0.2515061

 Al 
  0.7545654  0.0295369  0.2613447

 Al 
  0.7539862  0.2729184  0.9834315

 Al 
  0.9929607  0.4966301  0.0072744

 Al 
  0.0100094  0.7455770  0.2570628

 Al 
  0.2564786  0.4934842  0.2586407

 Al 
  0.2387617  0.7334117  0.9923011

 Al 
  0.9899399  0.0222922  0.5086667

 Al 
  0.0103435  0.2346951  0.7544775

 Al 
  0.2600292  0.9921526  0.7617754

 Al 
  0.2489765  0.2482080  0.5075219

 Al 
  0.0027709  0.4949000  0.5016818

 Al 
  0.9848411  0.7426674  0.7464853

 Al 
  0.2309378  0.4939372  0.7518576

 Al 
  0.2473306  0.7554020  0.5070071

 Al 
  0.5117333  0.5126343  0.0055616

 Al 
  0.4769652  0.7486560  0.2418308

 Al 
  0.7325788  0.5130266  0.2588275

 Al 
  0.7560183  0.7441637  0.0156700

 Al 
  0.4999616  0.9874536  0.4911366

 Al 
  0.5109264  0.2485978  0.7352470

 Al 
  0.7630352  0.0021571  0.7361504

 Al 
  0.7646738  0.2495867  0.4935486

 Al 
  0.4793760  0.5019937  0.5038835

 Al 
  0.5049032  0.7398408  0.7456203

 Al 
  0.7644560  0.5046099  0.7523180

 Al 
  0.7354921  0.7485533  0.4833263

