32 
charge = 0 
 Al 
  0.9972724  0.9995706  0.0023279

 Al 
  0.0103794  0.2444755  0.2556804

 Al 
  0.2444891  0.9927751  0.2428902

 Al 
  0.2333065  0.2531781  0.9987748

 Al 
  0.5189706  0.9968665  0.9865762

 Al 
  0.5147517  0.2576271  0.2514430

 Al 
  0.7545122  0.0291978  0.2617878

 Al 
  0.7540295  0.2725620  0.9833065

 Al 
  0.9934644  0.4971734  0.0073486

 Al 
  0.0092990  0.7458480  0.2575813

 Al 
  0.2566779  0.4931711  0.2582236

 Al 
  0.2389894  0.7335441  0.9922058

 Al 
  0.9892122  0.0229395  0.5080095

 Al 
  0.0108757  0.2343448  0.7538847

 Al 
  0.2594797  0.9918284  0.7620576

 Al 
  0.2486053  0.2482352  0.5077261

 Al 
  0.0031508  0.4950398  0.5009641

 Al 
  0.9848683  0.7420573  0.7465076

 Al 
  0.2305987  0.4935337  0.7516187

 Al 
  0.2471771  0.7561037  0.5071766

 Al 
  0.5117742  0.5129573  0.0057807

 Al 
  0.4768823  0.7481214  0.2423494

 Al 
  0.7329909  0.5132691  0.2584055

 Al 
  0.7559811  0.7435214  0.0160339

 Al 
  0.4997426  0.9874635  0.4913544

 Al 
  0.5107408  0.2484654  0.7355453

 Al 
  0.7624561  0.0019739  0.7362680

 Al 
  0.7643495  0.2492847  0.4934768

 Al 
  0.4797522  0.5014764  0.5034936

 Al 
  0.5046681  0.7399955  0.7457626

 Al 
  0.7647715  0.5047349  0.7516757

 Al 
  0.7357829  0.7486647  0.4837657

