32 
charge = 0 
 Al 
  0.9986894  0.0008663  0.0028192

 Al 
  0.0118620  0.2467811  0.2565430

 Al 
  0.2441649  0.9922813  0.2431216

 Al 
  0.2354636  0.2551210  0.9983342

 Al 
  0.5187701  0.9961883  0.9867247

 Al 
  0.5138706  0.2580974  0.2512165

 Al 
  0.7543476  0.0279194  0.2628867

 Al 
  0.7541223  0.2712886  0.9830664

 Al 
  0.9950089  0.4988454  0.0076234

 Al 
  0.0070987  0.7466586  0.2591468

 Al 
  0.2571568  0.4922417  0.2569229

 Al 
  0.2396849  0.7339946  0.9919435

 Al 
  0.9873001  0.0245136  0.5059329

 Al 
  0.0123967  0.2334352  0.7521410

 Al 
  0.2577954  0.9908940  0.7628360

 Al 
  0.2475422  0.2482526  0.5082669

 Al 
  0.0042436  0.4955126  0.4987736

 Al 
  0.9850676  0.7403557  0.7465633

 Al 
  0.2297114  0.4923791  0.7508997

 Al 
  0.2466239  0.7581345  0.5076902

 Al 
  0.5117630  0.5137815  0.0063103

 Al 
  0.4767400  0.7465843  0.2439285

 Al 
  0.7343782  0.5138805  0.2571667

 Al 
  0.7558896  0.7417529  0.0170449

 Al 
  0.4990656  0.9876219  0.4920350

 Al 
  0.5101443  0.2480929  0.7364994

 Al 
  0.7605824  0.0013811  0.7367606

 Al 
  0.7631912  0.2486647  0.4934050

 Al 
  0.4810207  0.4999356  0.5023637

 Al 
  0.5039800  0.7404584  0.7462242

 Al 
  0.7655611  0.5050653  0.7496560

 Al 
  0.7367618  0.7490186  0.4851542

