32 
charge = 0 
 Al 
  0.0008217  0.0028229  0.0036347

 Al 
  0.0141614  0.2509096  0.2576432

 Al 
  0.2437726  0.9917653  0.2435832

 Al 
  0.2396614  0.2581902  0.9977835

 Al 
  0.5183345  0.9952552  0.9872890

 Al 
  0.5120316  0.2586654  0.2507203

 Al 
  0.7540394  0.0249802  0.2639114

 Al 
  0.7542090  0.2685845  0.9830751

 Al 
  0.9976251  0.5016818  0.0082013

 Al 
  0.0032944  0.7480273  0.2617457

 Al 
  0.2575801  0.4907802  0.2546495

 Al 
  0.2408792  0.7349302  0.9916069

 Al 
  0.9850416  0.0258675  0.5022004

 Al 
  0.0146008  0.2323994  0.7494320

 Al 
  0.2549106  0.9894671  0.7639090

 Al 
  0.2460076  0.2480620  0.5088981

 Al 
  0.0058784  0.4964655  0.4950510

 Al 
  0.9857953  0.7380402  0.7466413

 Al 
  0.2287003  0.4906898  0.7496906

 Al 
  0.2454185  0.7611975  0.5085466

 Al 
  0.5113187  0.5146367  0.0067323

 Al 
  0.4768502  0.7442961  0.2466573

 Al 
  0.7371467  0.5144485  0.2552671

 Al 
  0.7558215  0.7394164  0.0183964

 Al 
  0.4978862  0.9883038  0.4932503

 Al 
  0.5090218  0.2475595  0.7382617

 Al 
  0.7571061  0.0002388  0.7380068

 Al 
  0.7606443  0.2486238  0.4937466

 Al 
  0.4835516  0.4974642  0.5006547

 Al 
  0.5028872  0.7411799  0.7470732

 Al 
  0.7663346  0.5053883  0.7460584

 Al 
  0.7386676  0.7496560  0.4876838

