32 
charge = 0 
 Al 
  0.9995805  0.0016806  0.0031471

 Al 
  0.0128137  0.2483961  0.2570368

 Al 
  0.2439842  0.9920289  0.2432936

 Al 
  0.2370576  0.2563772  0.9980880

 Al 
  0.5186117  0.9957873  0.9869016

 Al 
  0.5131850  0.2583610  0.2510358

 Al 
  0.7542312  0.0268576  0.2634201

 Al 
  0.7541632  0.2702861  0.9830107

 Al 
  0.9960534  0.4999802  0.0078400

 Al 
  0.0055901  0.7472019  0.2601913

 Al 
  0.2573808  0.4916390  0.2560257

 Al 
  0.2401577  0.7343411  0.9917925

 Al 
  0.9862581  0.0252475  0.5044738

 Al 
  0.0133347  0.2329489  0.7510210

 Al 
  0.2566494  0.9903025  0.7632988

 Al 
  0.2468888  0.2482105  0.5085615

 Al 
  0.0049267  0.4958715  0.4972910

 Al 
  0.9852990  0.7393458  0.7465955

 Al 
  0.2292349  0.4916638  0.7504195

 Al 
  0.2461821  0.7594141  0.5080343

 Al 
  0.5116467  0.5142035  0.0065504

 Al 
  0.4767338  0.7456252  0.2450040

 Al 
  0.7354215  0.5141788  0.2563759

 Al 
  0.7558487  0.7407195  0.0176402

 Al 
  0.4986016  0.9878335  0.4925090

 Al 
  0.5097149  0.2478652  0.7371801

 Al 
  0.7592359  0.0009467  0.7371987

 Al 
  0.7622630  0.2484976  0.4934743

 Al 
  0.4819749  0.4989270  0.5016509

 Al 
  0.5035357  0.7407566  0.7465559

 Al 
  0.7659534  0.5052349  0.7482451

 Al 
  0.7374882  0.7492686  0.4861356

