32 
charge = 0 
 Al 
  0.9982278  0.0004443  0.0026558

 Al 
  0.0113744  0.2459952  0.2562707

 Al 
  0.2442664  0.9924298  0.2430412

 Al 
  0.2347124  0.2544800  0.9984716

 Al 
  0.5188419  0.9964049  0.9866603

 Al 
  0.5141849  0.2579501  0.2512982

 Al 
  0.7544032  0.0283884  0.2625600

 Al 
  0.7540963  0.2717452  0.9831246

 Al 
  0.9944904  0.4982823  0.0075244

 Al 
  0.0078412  0.7463888  0.2586246

 Al 
  0.2570157  0.4925499  0.2573635

 Al 
  0.2394510  0.7338350  0.9920264

 Al 
  0.9878917  0.0240508  0.5066420

 Al 
  0.0119041  0.2337137  0.7527152

 Al 
  0.2583610  0.9911997  0.7625872

 Al 
  0.2478875  0.2482575  0.5080986

 Al 
  0.0038872  0.4953468  0.4995087

 Al 
  0.9849809  0.7409002  0.7465460

 Al 
  0.2299849  0.4927541  0.7511398

 Al 
  0.2468244  0.7574724  0.5075182

 Al 
  0.5117890  0.5135315  0.0061556

 Al 
  0.4767685  0.7470843  0.2433976

 Al 
  0.7338919  0.5136973  0.2575739

 Al 
  0.7559168  0.7423147  0.0167219

 Al 
  0.4992946  0.9875476  0.4918036

 Al 
  0.5103497  0.2482130  0.7361727

 Al 
  0.7612284  0.0015866  0.7365737

 Al 
  0.7636082  0.2488231  0.4934050

 Al 
  0.4805752  0.5004455  0.5027325

 Al 
  0.5042065  0.7403049  0.7460646

 Al 
  0.7653247  0.5049639  0.7503428

 Al 
  0.7364190  0.7488973  0.4846802

