32 
charge = 0 
 Al 
  0.0012091  0.0031830  0.0037944

 Al 
  0.0145859  0.2517648  0.2578065

 Al 
  0.2437181  0.9917071  0.2436884

 Al 
  0.2405821  0.2587718  0.9976969

 Al 
  0.5182281  0.9950968  0.9874524

 Al 
  0.5116182  0.2587409  0.2506015

 Al 
  0.7539689  0.0242859  0.2639919

 Al 
  0.7542238  0.2679706  0.9831320

 Al 
  0.9981461  0.5022449  0.0083288

 Al 
  0.0025259  0.7483083  0.2622581

 Al 
  0.2576122  0.4905104  0.2541854

 Al 
  0.2411230  0.7351443  0.9915586

 Al 
  0.9847285  0.0259467  0.5014257

 Al 
  0.0149819  0.2322633  0.7489307

 Al 
  0.2543278  0.9892035  0.7640896

 Al 
  0.2457453  0.2479902  0.5089798

 Al 
  0.0061754  0.4966784  0.4943047

 Al 
  0.9860007  0.7376652  0.7466561

 Al 
  0.2285716  0.4903953  0.7494456

 Al 
  0.2451401  0.7617544  0.5087162

 Al 
  0.5111690  0.5147258  0.0067460

 Al 
  0.4769207  0.7438864  0.2472204

 Al 
  0.7377617  0.5144881  0.2549205

 Al 
  0.7558215  0.7390525  0.0186092

 Al 
  0.4976437  0.9884993  0.4935040

 Al 
  0.5087768  0.2474679  0.7386379

 Al 
  0.7563759  0.9999901  0.7383137

 Al 
  0.7600465  0.2487662  0.4938803

 Al 
  0.4841122  0.4969927  0.5003428

 Al 
  0.5026756  0.7413123  0.7472489

 Al 
  0.7664064  0.5054081  0.7453158

 Al 
  0.7390797  0.7497871  0.4882184

