32 
charge = 0 
 Al 
  0.0000074  0.0020717  0.0033105

 Al 
  0.0132741  0.2492240  0.2572583

 Al 
  0.2439062  0.9919261  0.2433865

 Al 
  0.2378979  0.2569922  0.9979778

 Al 
  0.5185251  0.9956005  0.9870130

 Al 
  0.5128162  0.2584748  0.2509368

 Al 
  0.7541693  0.0262685  0.2636256

 Al 
  0.7541792  0.2697441  0.9830132

 Al 
  0.9965781  0.5005495  0.0079563

 Al 
  0.0048277  0.7474754  0.2607111

 Al 
  0.2574650  0.4913457  0.2555703

 Al 
  0.2403965  0.7345292  0.9917244

 Al 
  0.9858064  0.0255185  0.5037263

 Al 
  0.0137765  0.2327422  0.7504789

 Al 
  0.2560727  0.9900178  0.7635129

 Al 
  0.2465806  0.2481721  0.5086889

 Al 
  0.0052547  0.4960621  0.4965447

 Al 
  0.9854438  0.7388805  0.7466103

 Al 
  0.2290320  0.4913247  0.7501782

 Al 
  0.2459396  0.7600267  0.5082050

 Al 
  0.5115576  0.5143755  0.0066346

 Al 
  0.4767561  0.7451661  0.2455497

 Al 
  0.7359759  0.5142938  0.2559948

 Al 
  0.7558351  0.7402517  0.0179112

 Al 
  0.4983652  0.9879697  0.4927528

 Al 
  0.5094909  0.2477588  0.7375340

 Al 
  0.7585392  0.0007178  0.7374486

 Al 
  0.7617531  0.2484902  0.4935424

 Al 
  0.4824823  0.4984320  0.5013081

 Al 
  0.5033167  0.7409014  0.7467254

 Al 
  0.7661081  0.5053017  0.7475249

 Al 
  0.7378706  0.7493973  0.4866418

