32 
charge = 0 
 Al 
  0.0026150  0.0045233  0.0044169

 Al 
  0.0161292  0.2552299  0.2582484

 Al 
  0.2435907  0.9916205  0.2441550

 Al 
  0.2444953  0.2609710  0.9974259

 Al 
  0.5177281  0.9945461  0.9882877

 Al 
  0.5098423  0.2588931  0.2500681

 Al 
  0.7536483  0.0212044  0.2639040

 Al 
  0.7542993  0.2653309  0.9835268

 Al 
  0.0001943  0.5044317  0.0088473

 Al 
  0.9994790  0.7494654  0.2642604

 Al 
  0.2575863  0.4895426  0.2523266

 Al 
  0.2421192  0.7360910  0.9914373

 Al 
  0.9839092  0.0256497  0.4982761

 Al 
  0.0162579  0.2319502  0.7470917

 Al 
  0.2519962  0.9882184  0.7647010

 Al 
  0.2448715  0.2475855  0.5091431

 Al 
  0.0072521  0.4975917  0.4913519

 Al 
  0.9870118  0.7364858  0.7467304

 Al 
  0.2283179  0.4893830  0.7484518

 Al 
  0.2439223  0.7637642  0.5093733

 Al 
  0.5103955  0.5148050  0.0065578

 Al 
  0.4773551  0.7424137  0.2495273

 Al 
  0.7403965  0.5143780  0.2536780

 Al 
  0.7558636  0.7379622  0.0192367

 Al 
  0.4966536  0.9894721  0.4945485

 Al 
  0.5077236  0.2471586  0.7402047

 Al 
  0.7533934  0.9989270  0.7397035

 Al 
  0.7573932  0.2497946  0.4946079

 Al 
  0.4865044  0.4952069  0.4992166

 Al 
  0.5018464  0.7417863  0.7479469

 Al 
  0.7664163  0.5053042  0.7423085

 Al 
  0.7407925  0.7503106  0.4904398

