32 
charge = 0 
 Al 
  0.0044961  0.0065083  0.0054205

 Al 
  0.0180647  0.2611343  0.2581531

 Al 
  0.2437317  0.9920140  0.2451463

 Al 
  0.2519950  0.2641887  0.9971672

 Al 
  0.5164670  0.9938803  0.9904794

 Al 
  0.5064465  0.2584959  0.2489159

 Al 
  0.7528650  0.0149918  0.2622853

 Al 
  0.7545876  0.2602520  0.9847780

 Al 
  0.0035382  0.5078387  0.0096839

 Al 
  0.9944842  0.7516905  0.2674484

 Al 
  0.2570863  0.4884721  0.2491894

 Al 
  0.2439545  0.7380588  0.9915598

 Al 
  0.9839822  0.0230422  0.4928259

 Al 
  0.0173977  0.2322224  0.7446092

 Al 
  0.2480310  0.9868125  0.7653359

 Al 
  0.2441253  0.2464445  0.5087446

 Al 
  0.0086939  0.4993874  0.4865514

 Al 
  0.9894399  0.7357062  0.7469395

 Al 
  0.2288847  0.4883335  0.7466635

 Al 
  0.2415140  0.7663853  0.5103881

 Al 
  0.5084761  0.5139053  0.0053599

 Al 
  0.4786459  0.7405314  0.2537473

 Al 
  0.7454693  0.5131107  0.2521088

 Al 
  0.7560517  0.7375130  0.0193914

 Al 
  0.4948876  0.9918036  0.4964371

 Al 
  0.5055987  0.2468578  0.7431390

 Al 
  0.7482526  0.9968826  0.7425833

 Al 
  0.7520135  0.2530555  0.4964494

 Al 
  0.4910933  0.4925833  0.4977377

 Al 
  0.5004356  0.7423630  0.7490694

 Al 
  0.7654522  0.5043599  0.7371207

 Al 
  0.7438382  0.7511782  0.4945708

