32 
charge = 0 
 Al 
  0.0047027  0.0067559  0.0055529

 Al 
  0.0182454  0.2619227  0.2580466

 Al 
  0.2437899  0.9921242  0.2453047

 Al 
  0.2531013  0.2645686  0.9971449

 Al 
  0.5162393  0.9938122  0.9908693

 Al 
  0.5059490  0.2583647  0.2487327

 Al 
  0.7527239  0.0140550  0.2619214

 Al 
  0.7546508  0.2595057  0.9850057

 Al 
  0.0039812  0.5082644  0.0097842

 Al 
  0.9938308  0.7520321  0.2678543

 Al 
  0.2569848  0.4884016  0.2487674

 Al 
  0.2442280  0.7383682  0.9916168

 Al 
  0.9841258  0.0224927  0.4920808

 Al 
  0.0174335  0.2323387  0.7443369

 Al 
  0.2474902  0.9866492  0.7653804

 Al 
  0.2441080  0.2462403  0.5086147

 Al 
  0.0088510  0.4996584  0.4859314

 Al 
  0.9898421  0.7357260  0.7469803

 Al 
  0.2290703  0.4882654  0.7464049

 Al 
  0.2411564  0.7666613  0.5105119

 Al 
  0.5081592  0.5136775  0.0051087

 Al 
  0.4788798  0.7403371  0.2543612

 Al 
  0.7462180  0.5128187  0.2519492

 Al 
  0.7560839  0.7375971  0.0193122

 Al 
  0.4946376  0.9921897  0.4967056

 Al 
  0.5052671  0.2468430  0.7435709

 Al 
  0.7475558  0.9965806  0.7430214

 Al 
  0.7512054  0.2536273  0.4967514

 Al 
  0.4917690  0.4922702  0.4975806

 Al 
  0.5002351  0.7424162  0.7492117

 Al 
  0.7652245  0.5041458  0.7364116

 Al 
  0.7442577  0.7512933  0.4951747

