32 
charge = 0 
 Al 
  0.0022858  0.0042028  0.0042646

 Al 
  0.0157690  0.2543612  0.2581704

 Al 
  0.2436092  0.9916205  0.2440312

 Al 
  0.2434855  0.2604426  0.9974840

 Al 
  0.5178655  0.9946711  0.9880513

 Al 
  0.5103027  0.2588783  0.2502104

 Al 
  0.7537350  0.0220162  0.2639869

 Al 
  0.7542770  0.2660153  0.9834043

 Al 
  0.9996894  0.5038958  0.0087174

 Al 
  0.0002339  0.7491696  0.2637679

 Al 
  0.2576147  0.4897654  0.2527907

 Al 
  0.2418667  0.7358410  0.9914559

 Al 
  0.9840503  0.0258143  0.4990681

 Al 
  0.0159782  0.2319947  0.7475249

 Al 
  0.2525778  0.9884535  0.7645649

 Al 
  0.2450621  0.2477043  0.5091283

 Al 
  0.0069997  0.4973541  0.4920821

 Al 
  0.9867309  0.7367321  0.7467093

 Al 
  0.2283414  0.4896094  0.7487018

 Al 
  0.2442404  0.7632951  0.5092124

 Al 
  0.5106146  0.5148272  0.0066408

 Al 
  0.4772251  0.7427553  0.2489419

 Al 
  0.7397134  0.5144473  0.2539664

 Al 
  0.7558475  0.7381788  0.0191142

 Al 
  0.4969036  0.9892023  0.4942837

 Al 
  0.5079984  0.2472279  0.7398037

 Al 
  0.7541434  0.9992018  0.7393347

 Al 
  0.7580924  0.2494716  0.4943988

 Al 
  0.4858856  0.4956364  0.4994802

 Al 
  0.5020519  0.7416774  0.7477736

 Al 
  0.7664546  0.5053586  0.7430622

 Al 
  0.7403569  0.7501807  0.4898730

