32 
charge = 0 
 Al 
  0.0042733  0.0062509  0.0052844

 Al 
  0.0178580  0.2603262  0.2582360

 Al 
  0.2436822  0.9919175  0.2449916

 Al 
  0.2508910  0.2637877  0.9971907

 Al 
  0.5166823  0.9939545  0.9901082

 Al 
  0.5069427  0.2586072  0.2490953

 Al 
  0.7529986  0.0159200  0.2626207

 Al 
  0.7545295  0.2609957  0.9845602

 Al 
  0.0030852  0.5073957  0.0095763

 Al 
  0.9951549  0.7513551  0.2670276

 Al 
  0.2571828  0.4885649  0.2496188

 Al 
  0.2436835  0.7377568  0.9915128

 Al 
  0.9838696  0.0235533  0.4935832

 Al 
  0.0173284  0.2321246  0.7449037

 Al 
  0.2485805  0.9869858  0.7652789

 Al 
  0.2441661  0.2466400  0.5088572

 Al 
  0.0085231  0.4991189  0.4871925

 Al 
  0.9890500  0.7357173  0.7469024

 Al 
  0.2287251  0.4884226  0.7469209

 Al 
  0.2418717  0.7660846  0.5102582

 Al 
  0.5087842  0.5141095  0.0055938

 Al 
  0.4784231  0.7407455  0.2531347

 Al 
  0.7447243  0.5133756  0.2522833

 Al 
  0.7560207  0.7374647  0.0194458

 Al 
  0.4951401  0.9914286  0.4961660

 Al 
  0.5059242  0.2468813  0.7427095

 Al 
  0.7489617  0.9971833  0.7421501

 Al 
  0.7528167  0.2525036  0.4961549

 Al 
  0.4904188  0.4929125  0.4979085

 Al 
  0.5006361  0.7423024  0.7489208

 Al 
  0.7656589  0.5045555  0.7378409

 Al 
  0.7434125  0.7510606  0.4939681

