32 
charge = 0 
 Al 
  0.0062175  0.0098993  0.0077311

 Al 
  0.0163643  0.2715299  0.2516596

 Al 
  0.2467898  0.9964098  0.2489802

 Al 
  0.2729184  0.2670140  0.9965645

 Al 
  0.5087199  0.9932120  0.0017796

 Al 
  0.4972514  0.2525333  0.2451908

 Al 
  0.7476796  0.9962452  0.2510086

 Al 
  0.7570838  0.2462997  0.9912009

 Al 
  0.0104067  0.5128682  0.0097780

 Al 
  0.9860527  0.7593832  0.2713356

 Al 
  0.2552101  0.4922603  0.2431142

 Al 
  0.2501695  0.7454421  0.9951116

 Al 
  0.9909027  0.0078932  0.4815875

 Al 
  0.0117791  0.2377692  0.7424991

 Al 
  0.2393025  0.9859673  0.7637827

 Al 
  0.2478009  0.2410648  0.5028476

 Al 
  0.0099302  0.5051062  0.4794379

 Al 
  0.9988082  0.7411749  0.7486251

 Al 
  0.2372779  0.4908631  0.7414163

 Al 
  0.2348102  0.7672850  0.5110675

 Al 
  0.5022004  0.5061061  0.9976622

 Al 
  0.4860700  0.7401205  0.2658581

 Al 
  0.7593547  0.5027499  0.2508415

 Al 
  0.7560071  0.7446933  0.0131961

 Al 
  0.4903544  0.0009925  0.5014096

 Al 
  0.4979271  0.2476697  0.7519454

 Al 
  0.7375415  0.9911923  0.7512462

 Al 
  0.7371467  0.2643483  0.5021979

 Al 
  0.5037139  0.4896701  0.4966895

 Al 
  0.4959705  0.7421402  0.7507277

 Al 
  0.7582583  0.4971412  0.7267227

 Al 
  0.7499777  0.7529553  0.5067818

