32 
charge = 0 
 Al 
  0.0060950  0.0090441  0.0069662

 Al 
  0.0183271  0.2692985  0.2550814

 Al 
  0.2451958  0.9943023  0.2474345

 Al 
  0.2658990  0.2672689  0.9969073

 Al 
  0.5124462  0.9933506  0.9968318

 Al 
  0.5003131  0.2554861  0.2464556

 Al 
  0.7502636  0.0029281  0.2558500

 Al 
  0.7558982  0.2510185  0.9884498

 Al 
  0.0083969  0.5119016  0.0103435

 Al 
  0.9878360  0.7564576  0.2711908

 Al 
  0.2557126  0.4894894  0.2446376

 Al 
  0.2477006  0.7424335  0.9931464

 Al 
  0.9875910  0.0140216  0.4845936

 Al 
  0.0153953  0.2349649  0.7425338

 Al 
  0.2418977  0.9855861  0.7649931

 Al 
  0.2455460  0.2432429  0.5057769

 Al 
  0.0098819  0.5029813  0.4805294

 Al 
  0.9952082  0.7380773  0.7477402

 Al 
  0.2330739  0.4889882  0.7433766

 Al 
  0.2369920  0.7680820  0.5113534

 Al 
  0.5042201  0.5095824  0.0010297

 Al 
  0.4826271  0.7394213  0.2615291

 Al 
  0.7547510  0.5075454  0.2510148

 Al 
  0.7562720  0.7409398  0.0165759

 Al 
  0.4918556  0.9973912  0.4997005

 Al 
  0.5009257  0.2471388  0.7487129

 Al 
  0.7406081  0.9930882  0.7481820

 Al 
  0.7419534  0.2608212  0.5003775

 Al 
  0.4995669  0.4898458  0.4966351

 Al 
  0.4977612  0.7425090  0.7504331

 Al 
  0.7613732  0.5003564  0.7293067

 Al 
  0.7484134  0.7524380  0.5023118

