32 
charge = 0 
 Al 
  0.0062237  0.0097310  0.0075504

 Al 
  0.0169917  0.2711883  0.2526063

 Al 
  0.2463442  0.9958443  0.2485917

 Al 
  0.2713244  0.2672392  0.9966697

 Al 
  0.5097532  0.9932479  0.0004888

 Al 
  0.4979531  0.2533328  0.2454656

 Al 
  0.7484048  0.9978429  0.2522313

 Al 
  0.7567707  0.2474024  0.9904856

 Al 
  0.0099661  0.5127221  0.0100069

 Al 
  0.9863299  0.7586803  0.2714828

 Al 
  0.2552893  0.4914126  0.2433939

 Al 
  0.2495396  0.7446636  0.9945411

 Al 
  0.9900401  0.0093906  0.4821766

 Al 
  0.0128335  0.2369920  0.7424434

 Al 
  0.2398607  0.9857792  0.7641552

 Al 
  0.2471709  0.2415982  0.5036459

 Al 
  0.0099488  0.5045901  0.4795171

 Al 
  0.9979333  0.7403173  0.7483652

 Al 
  0.2361195  0.4903037  0.7419051

 Al 
  0.2352804  0.7676068  0.5112173

 Al 
  0.5026212  0.5069935  0.9985372

 Al 
  0.4851356  0.7398594  0.2648124

 Al 
  0.7583065  0.5040171  0.2508861

 Al 
  0.7561123  0.7436909  0.0141503

 Al 
  0.4906972  0.0001027  0.5009975

 Al 
  0.4986684  0.2475261  0.7511559

 Al 
  0.7382048  0.9916267  0.7505074

 Al 
  0.7382110  0.2636478  0.5018205

 Al 
  0.5027969  0.4895983  0.4966462

 Al 
  0.4964333  0.7422529  0.7506906

 Al 
  0.7590515  0.4979617  0.7271707

 Al 
  0.7496857  0.7528402  0.5056841

