32 
charge = 0 
 Al 
  0.0061928  0.0094228  0.0072670

 Al 
  0.0177652  0.2704049  0.2539156

 Al 
  0.2457341  0.9950423  0.2480100

 Al 
  0.2687243  0.2673729  0.9968021

 Al 
  0.5111715  0.9932974  0.9986176

 Al 
  0.4990867  0.2544577  0.2459346

 Al 
  0.7493911  0.0003317  0.2540567

 Al 
  0.7563202  0.2491498  0.9894485

 Al 
  0.0092310  0.5123880  0.0102371

 Al 
  0.9869549  0.7575850  0.2714680

 Al 
  0.2554700  0.4903346  0.2439397

 Al 
  0.2486115  0.7435300  0.9937862

 Al 
  0.9887827  0.0116900  0.4832644

 Al 
  0.0142307  0.2359227  0.7424360

 Al 
  0.2408111  0.9856158  0.7646268

 Al 
  0.2463034  0.2424175  0.5047621

 Al 
  0.0099413  0.5037944  0.4798772

 Al 
  0.9965856  0.7391305  0.7480261

 Al 
  0.2345169  0.4895748  0.7426390

 Al 
  0.2360861  0.7679372  0.5113398

 Al 
  0.5033637  0.5083078  0.9998094

 Al 
  0.4838288  0.7395735  0.2631986

 Al 
  0.7566036  0.5058363  0.2509455

 Al 
  0.7562200  0.7422590  0.0154435

 Al 
  0.4912529  0.9987525  0.5003626

 Al 
  0.4997933  0.2473207  0.7499480

 Al 
  0.7393235  0.9923271  0.7493676

 Al 
  0.7399832  0.2623558  0.5011509

 Al 
  0.5012636  0.4896367  0.4966140

 Al 
  0.4971078  0.7424001  0.7505903

 Al 
  0.7602260  0.4991783  0.7280964

 Al 
  0.7491238  0.7526521  0.5040159

