32 
charge = 0 
 Al 
  0.0062188  0.0096357  0.0074576

 Al 
  0.0172714  0.2709631  0.2530580

 Al 
  0.2461326  0.9955708  0.2483974

 Al 
  0.2704841  0.2673110  0.9967167

 Al 
  0.5102433  0.9932639  0.9998564

 Al 
  0.4983194  0.2537176  0.2456153

 Al 
  0.7487463  0.9986597  0.2528414

 Al 
  0.7566172  0.2479716  0.9901354

 Al 
  0.0097310  0.5126269  0.0100985

 Al 
  0.9865093  0.7583201  0.2715076

 Al 
  0.2553426  0.4910277  0.2435585

 Al 
  0.2492278  0.7442812  0.9942763

 Al 
  0.9896156  0.0101505  0.4825120

 Al 
  0.0133236  0.2366232  0.7424298

 Al 
  0.2401626  0.9857086  0.7643248

 Al 
  0.2468702  0.2418692  0.5040295

 Al 
  0.0099512  0.5043278  0.4796050

 Al 
  0.9974890  0.7399089  0.7482451

 Al 
  0.2355675  0.4900450  0.7421501

 Al 
  0.2355354  0.7677367  0.5112705

 Al 
  0.5028551  0.5074340  0.9989666

 Al 
  0.4846876  0.7397505  0.2642802

 Al 
  0.7577558  0.5046347  0.2509059

 Al 
  0.7561544  0.7432021  0.0145995

 Al 
  0.4908767  0.9996547  0.5007883

 Al 
  0.4990421  0.2474556  0.7507562

 Al 
  0.7385612  0.9918531  0.7501324

 Al 
  0.7387790  0.2632481  0.5016101

 Al 
  0.5023056  0.4895909  0.4966314

 Al 
  0.4966611  0.7423061  0.7506633

 Al 
  0.7594451  0.4983689  0.7274454

 Al 
  0.7495149  0.7527796  0.5051322

