32 
charge = 0 
 Al 
  0.0061816  0.0100973  0.0079897

 Al 
  0.0152678  0.2717675  0.2501349

 Al 
  0.2475212  0.9973009  0.2495619

 Al 
  0.2750829  0.2664670  0.9963888

 Al 
  0.5070294  0.9931439  0.0037746

 Al 
  0.4962861  0.2512673  0.2448493

 Al 
  0.7464866  0.9939359  0.2491844

 Al 
  0.7575677  0.2447354  0.9923160

 Al 
  0.0109995  0.5129771  0.0093052

 Al 
  0.9858435  0.7603831  0.2708616

 Al 
  0.2551569  0.4937268  0.2428234

 Al 
  0.2511410  0.7466549  0.9960769

 Al 
  0.9922219  0.0057287  0.4809094

 Al 
  0.0100156  0.2390364  0.7426489

 Al 
  0.2385810  0.9863769  0.7631318

 Al 
  0.2488058  0.2402963  0.5015680

 Al 
  0.0098733  0.5058549  0.4795579

 Al 
  0.0000743  0.7425523  0.7490768

 Al 
  0.2391528  0.4918110  0.7406799

 Al 
  0.2342260  0.7666514  0.5107359

 Al 
  0.5016905  0.5047745  0.9963145

 Al 
  0.4875736  0.7406143  0.2673840

 Al 
  0.7607940  0.5007735  0.2507512

 Al 
  0.7557943  0.7462514  0.0116244

 Al 
  0.4898866  0.0023019  0.5020222

 Al 
  0.4968368  0.2478887  0.7530989

 Al 
  0.7366554  0.9905920  0.7523291

 Al 
  0.7357334  0.2651205  0.5026521

 Al 
  0.5049131  0.4899324  0.4967774

 Al 
  0.4952552  0.7419546  0.7507401

 Al 
  0.7570578  0.4959160  0.7263205

 Al 
  0.7502945  0.7531162  0.5084092

