32 
charge = 0 
 Al 
  0.0059861  0.0101814  0.0089166

 Al 
  0.0093820  0.2693963  0.2430102

 Al 
  0.2510866  0.0012227  0.2517982

 Al 
  0.2802423  0.2617494  0.9956896

 Al 
  0.4984654  0.9924496  0.0122086

 Al 
  0.4937008  0.2456722  0.2446240

 Al 
  0.7404844  0.9857915  0.2424558

 Al 
  0.7594092  0.2394560  0.9974989

 Al 
  0.0127110  0.5123125  0.0056148

 Al 
  0.9872692  0.7632914  0.2654176

 Al 
  0.2558252  0.5017573  0.2431489

 Al 
  0.2554218  0.7520890  0.0014343

 Al 
  0.9974209  0.9986572  0.4808920

 Al 
  0.0010074  0.2454272  0.7436785

 Al 
  0.2371145  0.9897876  0.7593485

 Al 
  0.2530741  0.2381627  0.4956178

 Al 
  0.0093226  0.5083214  0.4828833

 Al 
  0.0043191  0.7490000  0.7517945

 Al 
  0.2482897  0.4967477  0.7376974

 Al 
  0.2338523  0.7622952  0.5079068

 Al 
  0.5014541  0.4998354  0.9907109

 Al 
  0.4949928  0.7437775  0.2728825

 Al 
  0.7647480  0.4923754  0.2497129

 Al 
  0.7541570  0.7525494  0.0036038

 Al 
  0.4888483  0.0069724  0.5046112

 Al 
  0.4930474  0.2485409  0.7570380

 Al 
  0.7341307  0.9888681  0.7564341

 Al 
  0.7324006  0.2640228  0.5028761

 Al 
  0.5072397  0.4929174  0.4971573

 Al 
  0.4921501  0.7412591  0.7502970

 Al 
  0.7522610  0.4914757  0.7283538

 Al 
  0.7501869  0.7536409  0.5146862

