32 
charge = 0 
 Al 
  0.0060034  0.0102544  0.0087756

 Al 
  0.0104784  0.2701562  0.2442750

 Al 
  0.2504430  0.0005532  0.2514455

 Al 
  0.2798488  0.2628026  0.9957774

 Al 
  0.5000780  0.9926278  0.0107977

 Al 
  0.4939619  0.2466215  0.2445151

 Al 
  0.7415982  0.9870105  0.2434582

 Al 
  0.7591468  0.2402195  0.9965472

 Al 
  0.0124920  0.5125291  0.0064440

 Al 
  0.9868002  0.7629721  0.2667467

 Al 
  0.2556161  0.5002141  0.2429385

 Al 
  0.2546668  0.7511287  0.0003725

 Al 
  0.9966004  0.9996027  0.4805740

 Al 
  0.0026867  0.2442243  0.7434917

 Al 
  0.2371925  0.9890080  0.7601171

 Al 
  0.2523848  0.2383582  0.4966722

 Al 
  0.0094525  0.5079909  0.4820207

 Al 
  0.0037251  0.7478442  0.7512363

 Al 
  0.2466103  0.4958183  0.7381924

 Al 
  0.2336530  0.7632147  0.5085503

 Al 
  0.5012685  0.5005779  0.9916304

 Al 
  0.4935981  0.7431291  0.2720546

 Al 
  0.7643198  0.4937726  0.2499889

 Al 
  0.7545233  0.7515581  0.0051173

 Al 
  0.4889040  0.0062942  0.5041495

 Al 
  0.4935808  0.2484815  0.7564972

 Al 
  0.7344513  0.9890624  0.7557807

 Al 
  0.7326840  0.2647270  0.5030308

 Al 
  0.5071519  0.4922058  0.4971115

 Al 
  0.4926885  0.7413470  0.7504220

 Al 
  0.7530469  0.4921254  0.7275816

 Al 
  0.7503428  0.7535679  0.5136887

