32 
charge = 0 
 Al 
  0.0060306  0.0102903  0.0086270

 Al 
  0.0115452  0.2707737  0.2455225

 Al 
  0.2498107  0.9998824  0.2510829

 Al 
  0.2792486  0.2637567  0.9958839

 Al 
  0.5016274  0.9927788  0.0093721

 Al 
  0.4942985  0.2475781  0.2444681

 Al 
  0.7426773  0.9882927  0.2445250

 Al 
  0.7588560  0.2410339  0.9956302

 Al 
  0.0122469  0.5127085  0.0071878

 Al 
  0.9864178  0.7625749  0.2679063

 Al 
  0.2554453  0.4987389  0.2427862

 Al 
  0.2539255  0.7501844  0.9993750

 Al 
  0.9957502  0.0006547  0.4803883

 Al 
  0.0043104  0.2430697  0.7433035

 Al 
  0.2373397  0.9883137  0.7608299

 Al 
  0.2516732  0.2386318  0.4977142

 Al 
  0.0095664  0.5076221  0.4812757

 Al 
  0.0030803  0.7467118  0.7507190

 Al 
  0.2449817  0.4949235  0.7386912

 Al 
  0.2335689  0.7640624  0.5091258

 Al 
  0.5011782  0.5013638  0.9925684

 Al 
  0.4922628  0.7425251  0.2711834

 Al 
  0.7637902  0.4951908  0.2502178

 Al 
  0.7548525  0.7505235  0.0065690

 Al 
  0.4890117  0.0055641  0.5037028

 Al 
  0.4941624  0.2483961  0.7558982

 Al 
  0.7348102  0.9893000  0.7551111

 Al 
  0.7330800  0.2652146  0.5031063

 Al 
  0.5069403  0.4915759  0.4970534

 Al 
  0.4932219  0.7414534  0.7505272

 Al 
  0.7538426  0.4928209  0.7269863

 Al 
  0.7504480  0.7534875  0.5126615

