32 
charge = 0 
 Al 
  0.0059935  0.0102223  0.0088461

 Al 
  0.0099327  0.2697936  0.2436439

 Al 
  0.2507636  0.0008886  0.2516237

 Al 
  0.2800715  0.2622878  0.9957304

 Al 
  0.4992797  0.9925424  0.0115056

 Al 
  0.4938209  0.2461450  0.2445622

 Al 
  0.7410438  0.9863930  0.2429484

 Al 
  0.7592817  0.2398309  0.9970187

 Al 
  0.0126046  0.5124251  0.0060405

 Al 
  0.9870242  0.7631417  0.2661032

 Al 
  0.2557163  0.5009777  0.2430362

 Al 
  0.2550431  0.7516076  0.0008960

 Al 
  0.9970150  0.9991151  0.4807163

 Al 
  0.0018526  0.2448208  0.7435857

 Al 
  0.2371454  0.9893867  0.7597396

 Al 
  0.2527338  0.2382493  0.4961462

 Al 
  0.0093894  0.5081617  0.4824378

 Al 
  0.0040295  0.7484196  0.7515111

 Al 
  0.2474444  0.4962786  0.7379437

 Al 
  0.2337384  0.7627642  0.5082360

 Al 
  0.5013502  0.5002005  0.9911675

 Al 
  0.4942886  0.7434483  0.2724741

 Al 
  0.7645463  0.4930709  0.2498564

 Al 
  0.7543451  0.7520593  0.0043674

 Al 
  0.4888694  0.0066395  0.5043785

 Al 
  0.4933073  0.2485149  0.7567757

 Al 
  0.7342867  0.9889597  0.7561098

 Al 
  0.7325281  0.2644015  0.5029627

 Al 
  0.5072113  0.4925523  0.4971363

 Al 
  0.4924199  0.7412999  0.7503614

 Al 
  0.7526533  0.4917937  0.7279454

 Al 
  0.7502710  0.7536050  0.5141911

