32 
charge = 0 
 Al 
  0.0061049  0.0092570  0.0094253

 Al 
  0.0040802  0.2638223  0.2369784

 Al 
  0.2540951  0.0041817  0.2533204

 Al 
  0.2788278  0.2555455  0.9957057

 Al 
  0.4901515  0.9912257  0.0182936

 Al 
  0.4936699  0.2415536  0.2459878

 Al 
  0.7350441  0.9810245  0.2389263

 Al 
  0.7600230  0.2365749  0.0024417

 Al 
  0.0134214  0.5107940  0.0004369

 Al 
  0.9905314  0.7635612  0.2566927

 Al 
  0.2573165  0.5097767  0.2448876

 Al 
  0.2590837  0.7567361  0.0073623

 Al 
  0.0007351  0.9957972  0.4843201

 Al 
  0.9924979  0.2517004  0.7444297

 Al 
  0.2377432  0.9948121  0.7548834

 Al 
  0.2557745  0.2386602  0.4906502

 Al 
  0.0083746  0.5092706  0.4885167

 Al 
  0.0064081  0.7547782  0.7549552

 Al 
  0.2567076  0.5014789  0.7354871

 Al 
  0.2365848  0.7570269  0.5039367

 Al 
  0.5036904  0.4970125  0.9869338

 Al 
  0.5023687  0.7473157  0.2760804

 Al 
  0.7651985  0.4863608  0.2476709

 Al 
  0.7518675  0.7562905  0.9957019

 Al 
  0.4894374  0.0092236  0.5070764

 Al 
  0.4913618  0.2482637  0.7585689

 Al 
  0.7331023  0.9887332  0.7592768

 Al 
  0.7326246  0.2575875  0.5010420

 Al 
  0.5060071  0.4973281  0.4971313

 Al 
  0.4896020  0.7412913  0.7494901

 Al 
  0.7486399  0.4891404  0.7345639

 Al 
  0.7489270  0.7538773  0.5188295

