32 
charge = 0 
 Al 
  0.0060554  0.0095131  0.0093634

 Al 
  0.0050554  0.2651243  0.2380835

 Al 
  0.2535592  0.0036768  0.2530506

 Al 
  0.2795604  0.2568474  0.9956376

 Al 
  0.4917653  0.9915017  0.0172776

 Al 
  0.4935016  0.2422454  0.2456252

 Al 
  0.7360465  0.9817682  0.2393953

 Al 
  0.7600168  0.2370143  0.0014702

 Al 
  0.0133323  0.5111381  0.0015729

 Al 
  0.9897975  0.7636862  0.2586419

 Al 
  0.2569724  0.5082063  0.2444730

 Al 
  0.2584018  0.7558698  0.0061420

 Al 
  0.0002079  0.9961116  0.4834204

 Al 
  0.9941377  0.2504678  0.7443146

 Al 
  0.2374882  0.9936847  0.7558302

 Al 
  0.2553673  0.2383496  0.4915487

 Al 
  0.0086072  0.5091827  0.4872717

 Al 
  0.0061123  0.7536619  0.7543005

 Al 
  0.2551012  0.5005705  0.7358707

 Al 
  0.2358237  0.7581184  0.5048005

 Al 
  0.5030914  0.4974420  0.9875303

 Al 
  0.5008985  0.7466066  0.2755928

 Al 
  0.7653383  0.4873707  0.2481548

 Al 
  0.7523687  0.7557497  0.9972588

 Al 
  0.4892047  0.0089538  0.5065715

 Al 
  0.4915512  0.2484073  0.7584389

 Al 
  0.7332310  0.9886318  0.7587842

 Al 
  0.7323746  0.2591963  0.5015259

 Al 
  0.5064403  0.4963838  0.4971759

 Al 
  0.4900673  0.7411997  0.7496634

 Al 
  0.7493094  0.4894721  0.7330652

 Al 
  0.7492141  0.7538476  0.5181489

