32 
charge = 0 
 Al 
  0.0062621  0.0084773  0.0094426

 Al 
  0.0019838  0.2603473  0.2346134

 Al 
  0.2551804  0.0051656  0.2539293

 Al 
  0.2761410  0.2523712  0.9959940

 Al 
  0.4864932  0.9905240  0.0202094

 Al 
  0.4944433  0.2402270  0.2470014

 Al 
  0.7329192  0.9796891  0.2383186

 Al 
  0.7597260  0.2357705  0.0046916

 Al 
  0.0135365  0.5099042  0.9975125

 Al 
  0.9924150  0.7629041  0.2516460

 Al 
  0.2582261  0.5134152  0.2459779

 Al 
  0.2605737  0.7586394  0.0103287

 Al 
  0.0017115  0.9955188  0.4868905

 Al 
  0.9887456  0.2545530  0.7446277

 Al 
  0.2386020  0.9977798  0.7525073

 Al 
  0.2564353  0.2398854  0.4887506

 Al 
  0.0076952  0.5092693  0.4916898

 Al 
  0.0069056  0.7573870  0.7565504

 Al 
  0.2603163  0.5035147  0.7347272

 Al 
  0.2388421  0.7543971  0.5017326

 Al 
  0.5053883  0.4962428  0.9859079

 Al 
  0.5058475  0.7489642  0.2769083

 Al 
  0.7643916  0.4843881  0.2463653

 Al 
  0.7505755  0.7571135  0.9920697

 Al 
  0.4902332  0.0094525  0.5083288

 Al 
  0.4912220  0.2477006  0.7585120

 Al 
  0.7329390  0.9893000  0.7602879

 Al 
  0.7336159  0.2531521  0.4996956

 Al 
  0.5046904  0.4996362  0.4969370

 Al 
  0.4886132  0.7417863  0.7490681

 Al 
  0.7471078  0.4886033  0.7386256

 Al 
  0.7482229  0.7539169  0.5201525

