32 
charge = 0 
 Al 
  0.0061618  0.0089674  0.0094575

 Al 
  0.0031793  0.2624635  0.2359586

 Al 
  0.2545765  0.0046260  0.2535728

 Al 
  0.2778909  0.2542535  0.9958034

 Al 
  0.4886144  0.9909448  0.0191711

 Al 
  0.4939211  0.2409522  0.2463789

 Al 
  0.7341208  0.9804007  0.2385872

 Al 
  0.7599587  0.2362049  0.0033773

 Al 
  0.0134857  0.5104413  0.9992760

 Al 
  0.9912814  0.7633533  0.2546916

 Al 
  0.2576741  0.5112878  0.2453183

 Al 
  0.2597211  0.7575467  0.0085689

 Al 
  0.0011843  0.9956029  0.4852990

 Al 
  0.9909311  0.2528872  0.7445250

 Al 
  0.2380513  0.9959792  0.7539305

 Al 
  0.2561012  0.2390748  0.4898260

 Al 
  0.0081184  0.5093065  0.4897827

 Al 
  0.0066457  0.7558549  0.7556049

 Al 
  0.2582286  0.5023390  0.7351468

 Al 
  0.2374338  0.7559502  0.5030593

 Al 
  0.5043414  0.4966549  0.9864400

 Al 
  0.5038018  0.7480001  0.2764789

 Al 
  0.7649510  0.4854735  0.2471623

 Al 
  0.7513551  0.7567113  0.9941971

 Al 
  0.4897208  0.0093906  0.5075801

 Al 
  0.4912492  0.2480719  0.7586097

 Al 
  0.7330107  0.9889065  0.7597198

 Al 
  0.7329637  0.2558710  0.5005210

 Al 
  0.5055121  0.4982687  0.4970670

 Al 
  0.4891726  0.7414410  0.7493169

 Al 
  0.7480026  0.4888768  0.7361455

 Al 
  0.7486387  0.7538983  0.5194235

