32 
charge = 0 
 Al 
  0.0062967  0.0083003  0.0094191

 Al 
  0.0016286  0.2596270  0.2342174

 Al 
  0.2553475  0.0053104  0.2540431

 Al 
  0.2754740  0.2517648  0.9960683

 Al 
  0.4858435  0.9903879  0.0204792

 Al 
  0.4946550  0.2400339  0.2472155

 Al 
  0.7325714  0.9795122  0.2382902

 Al 
  0.7596109  0.2356554  0.0051012

 Al 
  0.0135414  0.5097248  0.9969222

 Al 
  0.9927924  0.7627197  0.2506262

 Al 
  0.2584117  0.5140822  0.2461970

 Al 
  0.2608274  0.7589674  0.0108980

 Al 
  0.0018489  0.9955398  0.4874486

 Al 
  0.9880662  0.2550728  0.7446525

 Al 
  0.2388050  0.9983899  0.7520370

 Al 
  0.2565059  0.2402035  0.4884375

 Al 
  0.0075442  0.5092335  0.4923209

 Al 
  0.0069700  0.7578746  0.7568573

 Al 
  0.2609549  0.5038723  0.7346134

 Al 
  0.2393409  0.7539020  0.5012920

 Al 
  0.5057510  0.4961363  0.9857891

 Al 
  0.5064972  0.7492661  0.2770061

 Al 
  0.7641590  0.4840924  0.2460930

 Al 
  0.7503143  0.7571878  0.9913989

 Al 
  0.4904237  0.0094240  0.5085751

 Al 
  0.4912480  0.2475558  0.7584402

 Al 
  0.7329315  0.9894683  0.7604500

 Al 
  0.7338671  0.2522189  0.4994122

 Al 
  0.5044045  0.5000743  0.4968851

 Al 
  0.4884498  0.7419373  0.7489889

 Al 
  0.7468244  0.4885426  0.7394708

 Al 
  0.7480904  0.7539206  0.5203530

