32 
charge = 0 
 Al 
  0.0065059  0.0070949  0.0090404

 Al 
  0.9999653  0.2552312  0.2324328

 Al 
  0.2559762  0.0058091  0.2547362

 Al 
  0.2707329  0.2484172  0.9965769

 Al 
  0.4826209  0.9896441  0.0212650

 Al 
  0.4962576  0.2393854  0.2485075

 Al 
  0.7310913  0.9790543  0.2387048

 Al 
  0.7585132  0.2352272  0.0072311

 Al 
  0.0134820  0.5086592  0.9934001

 Al 
  0.9950139  0.7613150  0.2445745

 Al 
  0.2595268  0.5176019  0.2474618

 Al 
  0.2620081  0.7605143  0.0140649

 Al 
  0.0023105  0.9960893  0.4910103

 Al 
  0.9845181  0.2577830  0.7446995

 Al 
  0.2401898  0.0021088  0.7492810

 Al 
  0.2565158  0.2425746  0.4870415

 Al 
  0.0065145  0.5088090  0.4960287

 Al 
  0.0071803  0.7605725  0.7585676

 Al 
  0.2641540  0.5056247  0.7342384

 Al 
  0.2425598  0.7512351  0.4986832

 Al 
  0.5079600  0.4957750  0.9856913

 Al 
  0.5100181  0.7508156  0.2771001

 Al 
  0.7623509  0.4829810  0.2444372

 Al 
  0.7487352  0.7570430  0.9878286

 Al 
  0.4917504  0.0087558  0.5100329

 Al 
  0.4917455  0.2464890  0.7576481

 Al 
  0.7330503  0.9908668  0.7611455

 Al 
  0.7356876  0.2464692  0.4976969

 Al 
  0.5026707  0.5024343  0.4965138

 Al 
  0.4877407  0.7432466  0.7485867

 Al 
  0.7452552  0.4884696  0.7446154

 Al 
  0.7473999  0.7539057  0.5211586

