32 
charge = 0 
 Al 
  0.0064725  0.0073115  0.0091344

 Al 
  0.0001893  0.2559712  0.2326593

 Al 
  0.2559168  0.0057695  0.2546161

 Al 
  0.2716041  0.2489382  0.9964866

 Al 
  0.4830739  0.9897555  0.0212329

 Al 
  0.4959532  0.2394349  0.2482934

 Al 
  0.7312645  0.9790604  0.2385711

 Al 
  0.7587446  0.2352718  0.0069167

 Al 
  0.0135018  0.5088362  0.9939854

 Al 
  0.9946488  0.7615836  0.2455720

 Al 
  0.2593424  0.5170734  0.2472600

 Al 
  0.2618521  0.7603089  0.0135686

 Al 
  0.0022746  0.9959532  0.4903940

 Al 
  0.9850465  0.2573821  0.7447020

 Al 
  0.2399423  0.0014826  0.7497314

 Al 
  0.2565603  0.2421254  0.4872160

 Al 
  0.0067002  0.5089030  0.4954223

 Al 
  0.0071618  0.7601480  0.7582979

 Al 
  0.2636961  0.5053797  0.7342619

 Al 
  0.2420016  0.7516398  0.4991127

 Al 
  0.5075937  0.4958059  0.9856331

 Al 
  0.5094773  0.7505891  0.2771422

 Al 
  0.7626974  0.4830899  0.2447131

 Al 
  0.7490000  0.7571345  0.9883706

 Al 
  0.4915103  0.0089241  0.5097928

 Al 
  0.4916254  0.2466883  0.7578189

 Al 
  0.7330120  0.9905871  0.7610613

 Al 
  0.7353497  0.2474407  0.4979828

 Al 
  0.5029553  0.5020766  0.4965819

 Al 
  0.4878273  0.7429768  0.7486436

 Al 
  0.7455039  0.4884498  0.7437553

 Al 
  0.7475001  0.7539119  0.5210683

