32 
charge = 0 
 Al 
  0.0066222  0.0061569  0.0085206

 Al 
  0.9992637  0.2522524  0.2318103

 Al 
  0.2560393  0.0058042  0.2552584

 Al 
  0.2669571  0.2464878  0.9969494

 Al 
  0.4811532  0.9892691  0.0210076

 Al 
  0.4976053  0.2394102  0.2493466

 Al 
  0.7307052  0.9793018  0.2394770

 Al 
  0.7573821  0.2351319  0.0083226

 Al 
  0.0133731  0.5079538  0.9910685

 Al 
  0.9964507  0.7601059  0.2406391

 Al 
  0.2602582  0.5194879  0.2482068

 Al 
  0.2624672  0.7611207  0.0159113

 Al 
  0.0023142  0.9967724  0.4935585

 Al 
  0.9826395  0.2591901  0.7446488

 Al 
  0.2412430  0.0046359  0.7474989

 Al 
  0.2561593  0.2445770  0.4865613

 Al 
  0.0057039  0.5083535  0.4984147

 Al 
  0.0072113  0.7621888  0.7595824

 Al 
  0.2656948  0.5064118  0.7343151

 Al 
  0.2448592  0.7497859  0.4969902

 Al 
  0.5093795  0.4957465  0.9862235

 Al 
  0.5120006  0.7515804  0.2766880

 Al 
  0.7608039  0.4828263  0.2433382

 Al 
  0.7476635  0.7564304  0.9858707

 Al 
  0.4927677  0.0078709  0.5109809

 Al 
  0.4923543  0.2456277  0.7568326

 Al 
  0.7332855  0.9921786  0.7613633

 Al 
  0.7371739  0.2425536  0.4965695

 Al 
  0.5015853  0.5037102  0.4962254

 Al 
  0.4875155  0.7445423  0.7484110

 Al 
  0.7443010  0.4886676  0.7480484

 Al 
  0.7470645  0.7538649  0.5213628

