32 
charge = 0 
 Al 
  0.0066853  0.0039379  0.0066507

 Al 
  0.9986548  0.2461920  0.2319526

 Al 
  0.2553958  0.0050752  0.2566395

 Al 
  0.2581308  0.2433865  0.9976994

 Al 
  0.4799292  0.9890067  0.0186563

 Al 
  0.5008032  0.2404671  0.2508935

 Al 
  0.7314576  0.9810628  0.2420425

 Al 
  0.7541050  0.2352297  0.0097074

 Al 
  0.0130538  0.5064527  0.9863967

 Al 
  0.9992166  0.7570133  0.2330813

 Al 
  0.2616690  0.5221152  0.2493119

 Al 
  0.2626541  0.7612321  0.0188419

 Al 
  0.0016880  0.9986671  0.4990458

 Al 
  0.9799218  0.2610193  0.7444235

 Al 
  0.2436043  0.0098634  0.7440238

 Al 
  0.2547052  0.2495916  0.4865960

 Al 
  0.0037139  0.5071469  0.5030308

 Al 
  0.0071964  0.7651255  0.7612878

 Al 
  0.2674880  0.5071407  0.7354190

 Al 
  0.2496869  0.7477476  0.4937169

 Al 
  0.5117606  0.4960534  0.9887778

 Al 
  0.5151416  0.7524256  0.2745867

 Al 
  0.7570467  0.4837694  0.2412467

 Al 
  0.7454074  0.7541409  0.9829080

 Al 
  0.4950213  0.0051359  0.5127543

 Al 
  0.4940981  0.2436872  0.7546953

 Al 
  0.7342149  0.9957589  0.7613150

 Al 
  0.7408458  0.2345354  0.4943691

 Al 
  0.4998008  0.5054589  0.4956252

 Al 
  0.4875811  0.7482303  0.7483974

 Al 
  0.7425226  0.4896317  0.7548055

 Al 
  0.7467984  0.7536978  0.5211042

