32 
charge = 0 
 Al 
  0.0066989  0.0045369  0.0072348

 Al 
  0.9987216  0.2477167  0.2317398

 Al 
  0.2556445  0.0053413  0.2562410

 Al 
  0.2604834  0.2440659  0.9975150

 Al 
  0.4800171  0.9889956  0.0194706

 Al 
  0.4999567  0.2400834  0.2505272

 Al 
  0.7310702  0.9804676  0.2412814

 Al 
  0.7550542  0.2351765  0.0094624

 Al 
  0.0131442  0.5068487  0.9875650

 Al 
  0.9985422  0.7578746  0.2349215

 Al 
  0.2613249  0.5216116  0.2490941

 Al 
  0.2626924  0.7613460  0.0182182

 Al 
  0.0019207  0.9981412  0.4976276

 Al 
  0.9804787  0.2606901  0.7444879

 Al 
  0.2429855  0.0085318  0.7448827

 Al 
  0.2551520  0.2482130  0.4864697

 Al 
  0.0042634  0.5074761  0.5018959

 Al 
  0.0072001  0.7644238  0.7609054

 Al 
  0.2671910  0.5070566  0.7350119

 Al 
  0.2484605  0.7481437  0.4945164

 Al 
  0.5112482  0.4959396  0.9879486

 Al 
  0.5144560  0.7523019  0.2752846

 Al 
  0.7580578  0.4833845  0.2417479

 Al 
  0.7459891  0.7548339  0.9835305

 Al 
  0.4944384  0.0059341  0.5123360

 Al 
  0.4936043  0.2441872  0.7552794

 Al 
  0.7339154  0.9947441  0.7613819

 Al 
  0.7398347  0.2365638  0.4949136

 Al 
  0.5001856  0.5051260  0.4957725

 Al 
  0.4875080  0.7471709  0.7483503

 Al 
  0.7429546  0.4893186  0.7531397

 Al 
  0.7468059  0.7537523  0.5212465

