32 
charge = 0 
 Al 
  0.0066692  0.0036298  0.0063277

 Al 
  0.9986399  0.2454284  0.2321036

 Al 
  0.2552535  0.0049243  0.2568536

 Al 
  0.2569217  0.2430734  0.9977897

 Al 
  0.4799416  0.9890352  0.0181946

 Al 
  0.5012338  0.2406861  0.2510705

 Al 
  0.7317039  0.9813994  0.2424496

 Al 
  0.7535976  0.2352606  0.0098040

 Al 
  0.0130055  0.5062472  0.9858126

 Al 
  0.9995471  0.7565616  0.2321779

 Al 
  0.2618385  0.5223244  0.2494035

 Al 
  0.2626169  0.7611405  0.0191203

 Al 
  0.0015544  0.9989406  0.4997649

 Al 
  0.9796730  0.2611492  0.7443901

 Al 
  0.2439199  0.0105329  0.7435969

 Al 
  0.2544639  0.2503106  0.4866863

 Al 
  0.0034243  0.5069786  0.5035914

 Al 
  0.0071964  0.7654695  0.7614648

 Al 
  0.2676006  0.5071605  0.7356579

 Al 
  0.2503020  0.7475793  0.4933246

 Al 
  0.5119907  0.4961190  0.9892419

 Al 
  0.5154596  0.7524640  0.2741919

 Al 
  0.7565257  0.4839971  0.2410042

 Al 
  0.7451116  0.7537671  0.9826271

 Al 
  0.4953158  0.0047102  0.5129536

 Al 
  0.4943580  0.2434372  0.7543933

 Al 
  0.7343844  0.9962960  0.7612705

 Al 
  0.7413754  0.2335181  0.4940981

 Al 
  0.4996263  0.5055963  0.4955534

 Al 
  0.4876281  0.7487921  0.7484345

 Al 
  0.7423098  0.4898062  0.7556297

 Al 
  0.7468120  0.7536669  0.5210150

