32 
charge = 0 
 Al 
  0.0066630  0.0056458  0.0081642

 Al 
  0.9990199  0.2507487  0.2316705

 Al 
  0.2559700  0.0057089  0.2555542

 Al 
  0.2649040  0.2456178  0.9971388

 Al 
  0.4806309  0.9891342  0.0206475

 Al 
  0.4983503  0.2395525  0.2497525

 Al 
  0.7306977  0.9795852  0.2399955

 Al 
  0.7566915  0.2351257  0.0087694

 Al 
  0.0133050  0.5075949  0.9899027

 Al 
  0.9971573  0.7594191  0.2387060

 Al 
  0.2606195  0.5202923  0.2485372

 Al 
  0.2626009  0.7612890  0.0167467

 Al 
  0.0022350  0.9971895  0.4948827

 Al 
  0.9818351  0.2597730  0.7446042

 Al 
  0.2418024  0.0059180  0.7466215

 Al 
  0.2558834  0.2457044  0.4864499

 Al 
  0.0052559  0.5080838  0.4995867

 Al 
  0.0072113  0.7629560  0.7600515

 Al 
  0.2662975  0.5066965  0.7344649

 Al 
  0.2460423  0.7491659  0.4961561

 Al 
  0.5100478  0.4957824  0.9866727

 Al 
  0.5128867  0.7518786  0.2763304

 Al 
  0.7599413  0.4829105  0.2427974

 Al 
  0.7471165  0.7559836  0.9850119

 Al 
  0.4933073  0.0073041  0.5114437

 Al 
  0.4927293  0.2451636  0.7563536

 Al 
  0.7334550  0.9929533  0.7614079

 Al 
  0.7380006  0.2405747  0.4960126

 Al 
  0.5010829  0.5042498  0.4960745

 Al 
  0.4874722  0.7453257  0.7483602

 Al 
  0.7438431  0.4888384  0.7497562

 Al 
  0.7469420  0.7538340  0.5213777

