32 
charge = 0 
 Al 
  0.0065380  0.0023365  0.0048240

 Al 
  0.9986869  0.2423977  0.2330058

 Al 
  0.2545691  0.0042102  0.2578090

 Al 
  0.2519281  0.2419942  0.9981350

 Al 
  0.4803574  0.9893273  0.0160079

 Al 
  0.5029627  0.2417343  0.2517326

 Al 
  0.7330305  0.9829798  0.2442441

 Al 
  0.7513700  0.2354190  0.0100218

 Al 
  0.0128038  0.5053735  0.9835144

 Al 
  0.0008044  0.7546087  0.2287189

 Al 
  0.2624833  0.5228491  0.2496436

 Al 
  0.2623533  0.7605428  0.0199903

 Al 
  0.0009195  0.0000718  0.5026830

 Al 
  0.9788798  0.2614264  0.7442701

 Al 
  0.2452007  0.0132221  0.7419286

 Al 
  0.2533909  0.2533550  0.4872185

 Al 
  0.0021694  0.5062955  0.5057720

 Al 
  0.0072249  0.7667851  0.7620712

 Al 
  0.2678197  0.5071011  0.7368596

 Al 
  0.2527449  0.7471239  0.4918234

 Al 
  0.5126887  0.4964234  0.9914014

 Al 
  0.5165697  0.7524702  0.2722996

 Al 
  0.7543773  0.4851381  0.2401082

 Al 
  0.7439013  0.7521150  0.9817163

 Al 
  0.4964940  0.0028464  0.5136602

 Al 
  0.4954680  0.2424645  0.7531459

 Al 
  0.7352000  0.9986127  0.7610230

 Al 
  0.7436365  0.2294565  0.4930239

 Al 
  0.4990793  0.5059601  0.4952985

 Al 
  0.4878843  0.7512301  0.7486857

 Al 
  0.7414757  0.4906218  0.7588263

 Al 
  0.7469865  0.7535097  0.5205398

