32 
charge = 0 
 Al 
  0.0064291  0.0016670  0.0039503

 Al 
  0.9987624  0.2409126  0.2336283

 Al 
  0.2541731  0.0038006  0.2583399

 Al 
  0.2493738  0.2415648  0.9982946

 Al 
  0.4807807  0.9895909  0.0147319

 Al 
  0.5038055  0.2423457  0.2520296

 Al 
  0.7338968  0.9838993  0.2452218

 Al 
  0.7501497  0.2355131  0.0100317

 Al 
  0.0126949  0.5049007  0.9824019

 Al 
  0.0013786  0.7535580  0.2271125

 Al 
  0.2627803  0.5229073  0.2496782

 Al 
  0.2621665  0.7601158  0.0202577

 Al 
  0.0005532  0.0006435  0.5041471

 Al 
  0.9786075  0.2614140  0.7442243

 Al 
  0.2458393  0.0145525  0.7411279

 Al 
  0.2528043  0.2549552  0.4875761

 Al 
  0.0014826  0.5059601  0.5068078

 Al 
  0.0072608  0.7674026  0.7623014

 Al 
  0.2677999  0.5069972  0.7376083

 Al 
  0.2539342  0.7470323  0.4911304

 Al 
  0.5128855  0.4965979  0.9926538

 Al 
  0.5170301  0.7523835  0.2711673

 Al 
  0.7532845  0.4858373  0.2397183

 Al 
  0.7432875  0.7512153  0.9813970

 Al 
  0.4970719  0.0018353  0.5139449

 Al 
  0.4960571  0.2420152  0.7525147

 Al 
  0.7356950  0.9998527  0.7608646

 Al 
  0.7448381  0.2274627  0.4924954

 Al 
  0.4989097  0.5060269  0.4951958

 Al 
  0.4880439  0.7525395  0.7488726

 Al 
  0.7410722  0.4910970  0.7603386

 Al 
  0.7471511  0.7534070  0.5202379

