32 
charge = 0 
 Al 
  0.0062893  0.0009913  0.0030060

 Al 
  0.9988627  0.2394659  0.2343560

 Al 
  0.2537523  0.0033662  0.2588968

 Al 
  0.2468182  0.2412108  0.9984456

 Al 
  0.4813363  0.9899374  0.0133582

 Al 
  0.5046149  0.2430028  0.2523019

 Al 
  0.7348894  0.9848869  0.2462341

 Al 
  0.7488763  0.2356146  0.0099785

 Al 
  0.0125811  0.5044057  0.9813338

 Al 
  0.0019034  0.7524665  0.2256138

 Al 
  0.2630538  0.5228207  0.2496522

 Al 
  0.2619549  0.7596134  0.0204000

 Al 
  0.0001683  0.0012017  0.5055975

 Al 
  0.9784169  0.2612977  0.7441946

 Al 
  0.2464618  0.0158557  0.7403606

 Al 
  0.2521930  0.2565851  0.4879857

 Al 
  0.0007599  0.5056396  0.5077942

 Al 
  0.0073165  0.7679830  0.7624759

 Al 
  0.2677009  0.5068524  0.7384498

 Al 
  0.2550827  0.7470360  0.4904893

 Al 
  0.5129659  0.4967848  0.9940028

 Al 
  0.5174298  0.7522388  0.2699173

 Al 
  0.7522004  0.4866158  0.2393743

 Al 
  0.7426749  0.7502822  0.9811742

 Al 
  0.4976325  0.0007883  0.5141689

 Al 
  0.4966623  0.2416044  0.7518898

 Al 
  0.7362482  0.0011249  0.7606901

 Al 
  0.7460695  0.2255260  0.4919756

 Al 
  0.4988194  0.5060170  0.4951166

 Al 
  0.4882184  0.7538859  0.7491003

 Al 
  0.7406787  0.4916118  0.7617705

 Al 
  0.7473665  0.7532857  0.5198963

