32 
charge = 0 
 Al 
  0.0057992  0.9993391  0.0004183

 Al 
  0.9991758  0.2361059  0.2365650

 Al 
  0.2526509  0.0022313  0.2603473

 Al 
  0.2406242  0.2406638  0.9987674

 Al 
  0.4832385  0.9911774  0.0096369

 Al 
  0.5063871  0.2447589  0.2528662

 Al 
  0.7378447  0.9875501  0.2488033

 Al 
  0.7455621  0.2358819  0.0096047

 Al 
  0.0122717  0.5030877  0.9789342

 Al 
  0.0029293  0.7496362  0.2224481

 Al 
  0.2636045  0.5219432  0.2493144

 Al 
  0.2613682  0.7580974  0.0201710

 Al 
  0.9992005  0.0024590  0.5090565

 Al 
  0.9783006  0.2605725  0.7442144

 Al 
  0.2478924  0.0189038  0.7386528

 Al 
  0.2506200  0.2606567  0.4891800

 Al 
  0.9988144  0.5049453  0.5099797

 Al 
  0.0075405  0.7692305  0.7626269

 Al 
  0.2671563  0.5063536  0.7409188

 Al 
  0.2576741  0.7474432  0.4891750

 Al 
  0.5125984  0.4972823  0.9976870

 Al 
  0.5181860  0.7516682  0.2663519

 Al 
  0.7496473  0.4888397  0.2387741

 Al 
  0.7411997  0.7479283  0.9810554

 Al 
  0.4989270  0.9981115  0.5144201

 Al 
  0.4982006  0.2408272  0.7504121

 Al 
  0.7378682  0.0043166  0.7602148

 Al 
  0.7491659  0.2211128  0.4907492

 Al 
  0.4989815  0.5056730  0.4950559

 Al 
  0.4886924  0.7572793  0.7498243

 Al 
  0.7397517  0.4930362  0.7648706

 Al 
  0.7481251  0.7528885  0.5189050

