32 
charge = 0 
 Al 
  0.0047312  0.9972959  0.9966140

 Al 
  0.9995718  0.2322583  0.2403000

 Al 
  0.2511930  0.0007190  0.2622964

 Al 
  0.2330305  0.2406552  0.9990607

 Al 
  0.4867989  0.9937404  0.0042634

 Al 
  0.5080219  0.2471982  0.2533897

 Al 
  0.7427590  0.9912752  0.2520630

 Al 
  0.7409943  0.2362457  0.0086592

 Al 
  0.0117222  0.5011720  0.9764677

 Al 
  0.0034974  0.7456487  0.2196451

 Al 
  0.2639572  0.5192057  0.2482476

 Al 
  0.2606158  0.7556210  0.0184211

 Al 
  0.9981127  0.0036149  0.5132110

 Al 
  0.9789169  0.2586716  0.7445151

 Al 
  0.2494282  0.0224234  0.7368992

 Al 
  0.2484840  0.2659522  0.4910772

 Al 
  0.9958430  0.5043414  0.5122222

 Al 
  0.0080380  0.7703096  0.7620823

 Al 
  0.2658977  0.5055047  0.7450312

 Al 
  0.2603819  0.7488119  0.4881615

 Al 
  0.5106381  0.4979580  0.0031261

 Al 
  0.5187627  0.7505718  0.2606208

 Al 
  0.7468417  0.4923581  0.2386664

 Al 
  0.7394795  0.7449792  0.9819353

 Al 
  0.5004331  0.9945597  0.5139164

 Al 
  0.5002958  0.2405190  0.7486610

 Al 
  0.7405920  0.0083597  0.7595688

 Al 
  0.7531347  0.2165413  0.4893359

 Al 
  0.5001794  0.5045394  0.4953901

 Al 
  0.4893830  0.7616677  0.7511089

 Al 
  0.7386144  0.4951859  0.7677392

 Al 
  0.7496473  0.7520952  0.5173036

