32 
charge = 0 
 Al 
  0.0059143  0.9996621  0.0009542

 Al 
  0.9991102  0.2367420  0.2360848

 Al 
  0.2528724  0.0024590  0.2600564

 Al 
  0.2418259  0.2407356  0.9987105

 Al 
  0.4828065  0.9908878  0.0104030

 Al 
  0.5060678  0.2444013  0.2527672

 Al 
  0.7372073  0.9870056  0.2482946

 Al 
  0.7462316  0.2358287  0.0097037

 Al 
  0.0123373  0.5033587  0.9793760

 Al 
  0.0027622  0.7502091  0.2230088

 Al 
  0.2635117  0.5221944  0.2494134

 Al 
  0.2614871  0.7584253  0.0202861

 Al 
  0.9993886  0.0022301  0.5083907

 Al 
  0.9782845  0.2607643  0.7441983

 Al 
  0.2476251  0.0183246  0.7389671

 Al 
  0.2509356  0.2598522  0.4889251

 Al 
  0.9992166  0.5050691  0.5095787

 Al 
  0.0074860  0.7690077  0.7626306

 Al 
  0.2672949  0.5064650  0.7403879

 Al 
  0.2571952  0.7473182  0.4894015

 Al 
  0.5127395  0.4971808  0.9969234

 Al 
  0.5180597  0.7518031  0.2671093

 Al 
  0.7501312  0.4883682  0.2388619

 Al 
  0.7414843  0.7483936  0.9810282

 Al 
  0.4986820  0.9986461  0.5144077

 Al 
  0.4978937  0.2409497  0.7506943

 Al 
  0.7375192  0.0036867  0.7603114

 Al 
  0.7485545  0.2219333  0.4909844

 Al 
  0.4989023  0.5057757  0.4950510

 Al 
  0.4885946  0.7566073  0.7496634

 Al 
  0.7399300  0.4927392  0.7643136

 Al 
  0.7479494  0.7529788  0.5191166

