32 
charge = 0 
 Al 
  0.0034194  0.9959049  0.9935152

 Al 
  0.9997339  0.2298488  0.2438456

 Al 
  0.2501856  0.9996300  0.2637085

 Al 
  0.2278489  0.2412244  0.9991671

 Al 
  0.4903507  0.9966029  0.9999059

 Al 
  0.5085243  0.2490186  0.2536805

 Al 
  0.7473702  0.9940349  0.2541879

 Al 
  0.7374128  0.2365724  0.0076283

 Al 
  0.0110353  0.4995990  0.9752983

 Al 
  0.0031199  0.7423184  0.2187553

 Al 
  0.2637827  0.5156205  0.2469321

 Al 
  0.2601530  0.7534033  0.0156700

 Al 
  0.9977043  0.0038562  0.5159930

 Al 
  0.9800629  0.2564316  0.7450473

 Al 
  0.2502710  0.0246807  0.7360279

 Al 
  0.2468120  0.2698839  0.4927875

 Al 
  0.9931105  0.5041990  0.5133743

 Al 
  0.0086072  0.7704594  0.7608856

 Al 
  0.2645624  0.5048055  0.7489790

 Al 
  0.2617729  0.7504492  0.4880761

 Al 
  0.5076568  0.4983986  0.0076283

 Al 
  0.5189124  0.7496386  0.2553141

 Al 
  0.7454396  0.4955114  0.2393260

 Al 
  0.7384894  0.7430758  0.9835986

 Al 
  0.5015024  0.9919459  0.5126256

 Al 
  0.5019851  0.2410970  0.7474506

 Al 
  0.7432330  0.0110935  0.7590911

 Al 
  0.7558574  0.2145537  0.4885266

 Al 
  0.5020803  0.5031199  0.4961289

 Al 
  0.4899856  0.7648000  0.7523452

 Al 
  0.7377395  0.4970286  0.7687082

 Al 
  0.7512772  0.7511918  0.5157913

