32 
charge = 0 
 Al 
  0.0041236  0.9965571  0.9950312

 Al 
  0.9996770  0.2309527  0.2420425

 Al 
  0.2506559  0.0001460  0.2630402

 Al 
  0.2302832  0.2408816  0.9991288

 Al 
  0.4885327  0.9950993  0.0020420

 Al 
  0.5083783  0.2481511  0.2535469

 Al 
  0.7450299  0.9927256  0.2532177

 Al 
  0.7391577  0.2364004  0.0081605

 Al 
  0.0114140  0.5003725  0.9757722

 Al 
  0.0034058  0.7439731  0.2190337

 Al 
  0.2639312  0.5175462  0.2476264

 Al 
  0.2603609  0.7545134  0.0171836

 Al 
  0.9978343  0.0038303  0.5146923

 Al 
  0.9794230  0.2576098  0.7447478

 Al 
  0.2499010  0.0236350  0.7363918

 Al 
  0.2476288  0.2679917  0.4919249

 Al 
  0.9944990  0.5042288  0.5128818

 Al 
  0.0083065  0.7704829  0.7615700

 Al 
  0.2652505  0.5051445  0.7469643

 Al 
  0.2611814  0.7495953  0.4880315

 Al 
  0.5092929  0.4982006  0.0054131

 Al 
  0.5188728  0.7500879  0.2580033

 Al 
  0.7460163  0.4939285  0.2389065

 Al 
  0.7389213  0.7439458  0.9826667

 Al 
  0.5009851  0.9931946  0.5133731

 Al 
  0.5011522  0.2407071  0.7480286

 Al 
  0.7418816  0.0098225  0.7593213

 Al 
  0.7545889  0.2153074  0.4888793

 Al 
  0.5010321  0.5038723  0.4957044

 Al 
  0.4896812  0.7633149  0.7517165

 Al 
  0.7381714  0.4961128  0.7683939

 Al 
  0.7504294  0.7516695  0.5165648

