32 
charge = 0 
 Al 
  0.0026137  0.9953381  0.9920858

 Al 
  0.9997438  0.2289416  0.2457032

 Al 
  0.2497871  0.9991733  0.2642889

 Al 
  0.2257178  0.2416650  0.9991807

 Al 
  0.4922368  0.9982476  0.9978664

 Al 
  0.5084625  0.2497871  0.2538067

 Al 
  0.7497698  0.9951822  0.2549577

 Al 
  0.7357668  0.2367804  0.0070714

 Al 
  0.0105638  0.4988540  0.9750458

 Al 
  0.0026509  0.7406750  0.2187911

 Al 
  0.2634993  0.5134325  0.2461834

 Al 
  0.2599859  0.7523056  0.0138842

 Al 
  0.9977439  0.0036879  0.5171130

 Al 
  0.9808351  0.2551520  0.7454161

 Al 
  0.2505532  0.0255730  0.7358014

 Al 
  0.2460324  0.2716375  0.4936723

 Al 
  0.9916749  0.5042486  0.5137122

 Al 
  0.0089402  0.7702218  0.7600230

 Al 
  0.2638434  0.5044998  0.7510730

 Al 
  0.2621690  0.7513403  0.4882914

 Al 
  0.5057411  0.4985409  0.0097508

 Al 
  0.5188778  0.7492525  0.2525580

 Al 
  0.7451228  0.4970954  0.2399275

 Al 
  0.7381862  0.7423779  0.9847285

 Al 
  0.5020049  0.9908198  0.5116628

 Al 
  0.5027969  0.2416935  0.7469110

 Al 
  0.7446414  0.0121603  0.7588721

 Al 
  0.7569291  0.2143050  0.4882914

 Al 
  0.5033204  0.5022969  0.4966722

 Al 
  0.4903049  0.7661205  0.7529862

 Al 
  0.7373051  0.4979333  0.7686934

 Al 
  0.7521793  0.7506621  0.5149782

