32 
charge = 0 
 Al 
  0.0023229  0.9951673  0.9916304

 Al 
  0.9997364  0.2286817  0.2463343

 Al 
  0.2496708  0.9990347  0.2644597

 Al 
  0.2250730  0.2418321  0.9991807

 Al 
  0.4928791  0.9988268  0.9972093

 Al 
  0.5083969  0.2500173  0.2538488

 Al 
  0.7505829  0.9955250  0.2551668

 Al 
  0.7352421  0.2368620  0.0068808

 Al 
  0.0103794  0.4986139  0.9750111

 Al 
  0.0024553  0.7401280  0.2188704

 Al 
  0.2633719  0.5126454  0.2459259

 Al 
  0.2599364  0.7519430  0.0132295

 Al 
  0.9977984  0.0035877  0.5174472

 Al 
  0.9811210  0.2547065  0.7455547

 Al 
  0.2506324  0.0258391  0.7357569

 Al 
  0.2457787  0.2721932  0.4939743

 Al 
  0.9911848  0.5042795  0.5137926

 Al 
  0.0090590  0.7700906  0.7596951

 Al 
  0.2635971  0.5044057  0.7517870

 Al 
  0.2622581  0.7516398  0.4884003

 Al 
  0.5050431  0.4985731  0.0104339

 Al 
  0.5188493  0.7491424  0.2516237

 Al 
  0.7450757  0.4976226  0.2401688

 Al 
  0.7381157  0.7421836  0.9851493

 Al 
  0.5021719  0.9904720  0.5112928

 Al 
  0.5030642  0.2419385  0.7467365

 Al 
  0.7451228  0.0124697  0.7588003

 Al 
  0.7572397  0.2143384  0.4882394

 Al 
  0.5037758  0.5020098  0.4968813

 Al 
  0.4904163  0.7665227  0.7532016

 Al 
  0.7371578  0.4982328  0.7686179

 Al 
  0.7524912  0.7504740  0.5146961

