32 
charge = 0 
 Al 
  0.0028947  0.9955175  0.9925511

 Al 
  0.9997451  0.2292226  0.2450782

 Al 
  0.2499109  0.9993193  0.2641057

 Al 
  0.2263947  0.2415091  0.9991783

 Al 
  0.4916019  0.9976833  0.9985360

 Al 
  0.5085058  0.2495421  0.2537647

 Al 
  0.7489629  0.9948196  0.2547238

 Al 
  0.7363051  0.2367049  0.0072595

 Al 
  0.0107334  0.4990991  0.9751052

 Al 
  0.0028266  0.7412220  0.2187454

 Al 
  0.2636095  0.5141899  0.2464383

 Al 
  0.2600379  0.7526694  0.0145092

 Al 
  0.9977105  0.0037671  0.5167591

 Al 
  0.9805628  0.2555888  0.7452849

 Al 
  0.2504678  0.0252921  0.7358621

 Al 
  0.2462886  0.2710683  0.4933741

 Al 
  0.9921588  0.5042238  0.5136157

 Al 
  0.0088251  0.7703257  0.7603312

 Al 
  0.2640859  0.5045975  0.7503676

 Al 
  0.2620576  0.7510408  0.4881998

 Al 
  0.5064106  0.4985001  0.0090552

 Al 
  0.5188976  0.7493726  0.2534837

 Al 
  0.7451995  0.4965682  0.2397072

 Al 
  0.7382729  0.7425907  0.9843300

 Al 
  0.5018378  0.9911811  0.5120081

 Al 
  0.5025283  0.2414707  0.7470880

 Al 
  0.7441661  0.0118286  0.7589451

 Al 
  0.7565950  0.2143297  0.4883558

 Al 
  0.5028860  0.5025791  0.4964779

 Al 
  0.4901960  0.7656985  0.7527721

 Al 
  0.7374511  0.4976325  0.7687342

 Al 
  0.7518724  0.7508440  0.5152542

