32 
charge = 0 
 Al 
  0.0020197  0.9950064  0.9911873

 Al 
  0.9997253  0.2284441  0.2469704

 Al 
  0.2495631  0.9989023  0.2646193

 Al 
  0.2244604  0.2420066  0.9991807

 Al 
  0.4935251  0.9994221  0.9965633

 Al 
  0.5083065  0.2502351  0.2538934

 Al 
  0.7514022  0.9958455  0.2553525

 Al 
  0.7347285  0.2369524  0.0066903

 Al 
  0.0101814  0.4983763  0.9750012

 Al 
  0.0022425  0.7395810  0.2189842

 Al 
  0.2632258  0.5118299  0.2456648

 Al 
  0.2598906  0.7515841  0.0125464

 Al 
  0.9978739  0.0034639  0.5177603

 Al 
  0.9814229  0.2542523  0.7457019

 Al 
  0.2507029  0.0260903  0.7357272

 Al 
  0.2455299  0.2727340  0.4942800

 Al 
  0.9906886  0.5043191  0.5138582

 Al 
  0.0091827  0.7699334  0.7593461

 Al 
  0.2633483  0.5043166  0.7525098

 Al 
  0.2623286  0.7519393  0.4885290

 Al 
  0.5043154  0.4985978  0.0111034

 Al 
  0.5188122  0.7490421  0.2506831

 Al 
  0.7450584  0.4981486  0.2404312

 Al 
  0.7380600  0.7420091  0.9855898

 Al 
  0.5023415  0.9901403  0.5108967

 Al 
  0.5033290  0.2422083  0.7465633

 Al 
  0.7456104  0.0127531  0.7587273

 Al 
  0.7575256  0.2144312  0.4882036

 Al 
  0.5042523  0.5017165  0.4971041

 Al 
  0.4905314  0.7669076  0.7534181

 Al 
  0.7370093  0.4985310  0.7685065

 Al 
  0.7528080  0.7502809  0.5144065

