32 
charge = 0 
 Al 
  0.9983738  0.9938617  0.9875971

 Al 
  0.9994295  0.2273551  0.2535357

 Al 
  0.2489765  0.9979766  0.2654039

 Al 
  0.2201265  0.2440684  0.9991523

 Al 
  0.5000792  0.0060962  0.9908519

 Al 
  0.5061977  0.2515272  0.2545233

 Al 
  0.7598139  0.9977563  0.2558079

 Al 
  0.7304564  0.2385773  0.0047399

 Al 
  0.0070999  0.4962514  0.9763502

 Al 
  0.9992896  0.7341493  0.2218826

 Al 
  0.2606010  0.5022685  0.2430857

 Al 
  0.2594438  0.7483021  0.0042758

 Al 
  0.9998602  0.0009938  0.5196500

 Al 
  0.9852582  0.2494629  0.7476412

 Al 
  0.2512178  0.0277932  0.7362890

 Al 
  0.2432367  0.2773353  0.4976486

 Al 
  0.9855094  0.5049701  0.5137456

 Al 
  0.0106356  0.7666885  0.7547102

 Al 
  0.2607334  0.5036842  0.7599314

 Al 
  0.2619635  0.7545777  0.4908668

 Al 
  0.4957255  0.4983144  0.0168036

 Al 
  0.5177838  0.7488243  0.2410326

 Al 
  0.7465187  0.5031434  0.2441723

 Al 
  0.7384127  0.7413123  0.9910413

 Al 
  0.5042461  0.9877333  0.5055171

 Al 
  0.5058487  0.2461933  0.7447948

 Al 
  0.7506497  0.0141342  0.7578845

 Al 
  0.7589562  0.2188035  0.4887221

 Al 
  0.5100403  0.4986028  0.5001398

 Al 
  0.4919695  0.7696414  0.7554663

 Al 
  0.7354240  0.5014529  0.7656267

 Al 
  0.7561247  0.7481498  0.5111096

