32 
charge = 0 
 Al 
  0.9975410  0.9937280  0.9871083

 Al 
  0.9993552  0.2274491  0.2548413

 Al 
  0.2489703  0.9978850  0.2653520

 Al 
  0.2196698  0.2445015  0.9991609

 Al 
  0.5013304  0.0075207  0.9899163

 Al 
  0.5055393  0.2515581  0.2547126

 Al 
  0.7614734  0.9978330  0.2555975

 Al 
  0.7298611  0.2391243  0.0043624

 Al 
  0.0061903  0.4958975  0.9769343

 Al 
  0.9985929  0.7331036  0.2228231

 Al 
  0.2597829  0.5001349  0.2426402

 Al 
  0.2593201  0.7477650  0.0024009

 Al 
  0.0005136  0.0002611  0.5197131

 Al 
  0.9861839  0.2485335  0.7481201

 Al 
  0.2513217  0.0279553  0.7365910

 Al 
  0.2428283  0.2780593  0.4984011

 Al 
  0.9844810  0.5051111  0.5135773

 Al 
  0.0109623  0.7656539  0.7535691

 Al 
  0.2601926  0.5036124  0.7613670

 Al 
  0.2616776  0.7549453  0.4915512

 Al 
  0.4938468  0.4981214  0.0176452

 Al 
  0.5174001  0.7489877  0.2391354

 Al 
  0.7471425  0.5040122  0.2451314

 Al 
  0.7386936  0.7413878  0.9922850

 Al 
  0.5046965  0.9874833  0.5041533

 Al 
  0.5063017  0.2472427  0.7444161

 Al 
  0.7516385  0.0140649  0.7576679

 Al 
  0.7589142  0.2204185  0.4890253

 Al 
  0.5113583  0.4979914  0.5008997

 Al 
  0.4923407  0.7699248  0.7558165

 Al 
  0.7351022  0.5020148  0.7647282

 Al 
  0.7567769  0.7477192  0.5103584

