32 
charge = 0 
 Al 
  0.9979593  0.9937911  0.9873422

 Al 
  0.9993924  0.2273885  0.2541916

 Al 
  0.2489691  0.9979271  0.2653879

 Al 
  0.2198802  0.2442849  0.9991560

 Al 
  0.5007104  0.0068078  0.9903742

 Al 
  0.5058759  0.2515531  0.2546149

 Al 
  0.7606480  0.9978083  0.2557151

 Al 
  0.7301445  0.2388397  0.0045493

 Al 
  0.0066581  0.4960707  0.9766299

 Al 
  0.9989419  0.7336221  0.2223392

 Al 
  0.2602049  0.5012054  0.2428568

 Al 
  0.2593844  0.7480261  0.0033427

 Al 
  0.0001770  0.0006349  0.5196958

 Al 
  0.9857161  0.2489926  0.7478776

 Al 
  0.2512685  0.0278823  0.7364326

 Al 
  0.2430300  0.2777065  0.4980211

 Al 
  0.9849921  0.5050418  0.5136664

 Al 
  0.0107977  0.7661873  0.7541458

 Al 
  0.2604636  0.5036459  0.7606554

 Al 
  0.2618286  0.7547720  0.4912009

 Al 
  0.4947861  0.4982241  0.0172392

 Al 
  0.5176006  0.7488973  0.2400772

 Al 
  0.7468195  0.5035865  0.2446451

 Al 
  0.7385451  0.7413420  0.9916601

 Al 
  0.5044688  0.9875971  0.5048451

 Al 
  0.5060777  0.2467093  0.7446067

 Al 
  0.7511472  0.0141144  0.7577781

 Al 
  0.7589488  0.2195832  0.4888657

 Al 
  0.5106963  0.4982946  0.5005148

 Al 
  0.4921514  0.7697948  0.7556445

 Al 
  0.7352619  0.5017351  0.7651874

 Al 
  0.7564527  0.7479320  0.5107371

