32 
charge = 0 
 Al 
  0.9946178  0.9934434  0.9861579

 Al 
  0.9991671  0.2286855  0.2590552

 Al 
  0.2491993  0.9978058  0.2645550

 Al 
  0.2191872  0.2458406  0.9993144

 Al 
  0.5051260  0.0122692  0.9873781

 Al 
  0.5028749  0.2510259  0.2555579

 Al 
  0.7667875  0.9973256  0.2542362

 Al 
  0.7287671  0.2417875  0.0031768

 Al 
  0.0022239  0.4949186  0.9796520

 Al 
  0.9962997  0.7298079  0.2268403

 Al 
  0.2561334  0.4926984  0.2415276

 Al 
  0.2586394  0.7464519  0.9958876

 Al 
  0.0032288  0.9973739  0.5189743

 Al 
  0.9896218  0.2457836  0.7499084

 Al 
  0.2518489  0.0280197  0.7380823

 Al 
  0.2415945  0.2799725  0.5011881

 Al 
  0.9812806  0.5054044  0.5127283

 Al 
  0.0120811  0.7611492  0.7493787

 Al 
  0.2582979  0.5034615  0.7657257

 Al 
  0.2602495  0.7555319  0.4943357

 Al 
  0.4876169  0.4970794  0.0195040

 Al 
  0.5155017  0.7501262  0.2331184

 Al 
  0.7498589  0.5063425  0.2487525

 Al 
  0.7402047  0.7420796  0.9965286

 Al 
  0.5064638  0.9872791  0.4989654

 Al 
  0.5076197  0.2512722  0.7430511

 Al 
  0.7547300  0.0129127  0.7567138

 Al 
  0.7579786  0.2275457  0.4905252

 Al 
  0.5159571  0.4961301  0.5036966

 Al 
  0.4939001  0.7701710  0.7567138

 Al 
  0.7341456  0.5038637  0.7611777

 Al 
  0.7587929  0.7464432  0.5075924

