32 
charge = 0 
 Al 
  0.9938407  0.9933964  0.9861096

 Al 
  0.9991498  0.2292882  0.2601010

 Al 
  0.2493181  0.9978405  0.2641552

 Al 
  0.2193505  0.2461363  0.9994047

 Al 
  0.5059811  0.0134758  0.9868806

 Al 
  0.5020680  0.2507104  0.2558363

 Al 
  0.7680907  0.9969915  0.2537214

 Al 
  0.7287684  0.2427615  0.0028934

 Al 
  0.0009022  0.4947181  0.9805703

 Al 
  0.9957638  0.7290233  0.2281385

 Al 
  0.2548884  0.4907034  0.2413692

 Al 
  0.2583548  0.7462737  0.9941575

 Al 
  0.0040642  0.9965224  0.5184904

 Al 
  0.9906044  0.2452020  0.7504171

 Al 
  0.2520630  0.0278909  0.7386119

 Al 
  0.2413061  0.2803327  0.5020086

 Al 
  0.9805455  0.5053970  0.5124375

 Al 
  0.0123682  0.7596703  0.7482142

 Al 
  0.2577645  0.5034342  0.7667021

 Al 
  0.2597569  0.7554799  0.4951933

 Al 
  0.4860663  0.4966870  0.0197045

 Al 
  0.5148074  0.7505916  0.2316667

 Al 
  0.7507017  0.5067559  0.2497958

 Al 
  0.7407690  0.7423618  0.9976127

 Al 
  0.5070145  0.9874029  0.4974506

 Al 
  0.5078994  0.2524516  0.7426650

 Al 
  0.7554539  0.0123509  0.7563759

 Al 
  0.7575256  0.2298574  0.4910537

 Al 
  0.5171786  0.4957156  0.5044713

 Al 
  0.4944211  0.7700386  0.7568549

 Al 
  0.7339600  0.5043525  0.7601443

 Al 
  0.7592545  0.7461871  0.5067955

