32 
charge = 0 
 Al 
  0.9924422  0.9933184  0.9862952

 Al 
  0.9991758  0.2307893  0.2619276

 Al 
  0.2495904  0.9979543  0.2631429

 Al 
  0.2200250  0.2465794  0.9996535

 Al 
  0.5073375  0.0156020  0.9861851

 Al 
  0.5004802  0.2499059  0.2564143

 Al 
  0.7703393  0.9961450  0.2526075

 Al 
  0.7291953  0.2449644  0.0024170

 Al 
  0.9980843  0.4944235  0.9825194

 Al 
  0.9949421  0.7277152  0.2308487

 Al 
  0.2521793  0.4870266  0.2412863

 Al 
  0.2576382  0.7462081  0.9910004

 Al 
  0.0057262  0.9948753  0.5171947

 Al 
  0.9924929  0.2443580  0.7513861

 Al 
  0.2525840  0.0274429  0.7397728

 Al 
  0.2408247  0.2808165  0.5036607

 Al 
  0.9793909  0.5052225  0.5118286

 Al 
  0.0128583  0.7565628  0.7460423

 Al 
  0.2567064  0.5033736  0.7682219

 Al 
  0.2587137  0.7550876  0.4969222

 Al 
  0.4834055  0.4958034  0.0196748

 Al 
  0.5132419  0.7516620  0.2292040

 Al 
  0.7523415  0.5072026  0.2517969

 Al 
  0.7420388  0.7429805  0.9994951

 Al 
  0.5081605  0.9878508  0.4944904

 Al 
  0.5083115  0.2547498  0.7419299

 Al 
  0.7566408  0.0109834  0.7556049

 Al 
  0.7564489  0.2346196  0.4922034

 Al 
  0.5193839  0.4950869  0.5058908

 Al 
  0.4955609  0.7695374  0.7569625

 Al 
  0.7337570  0.5052794  0.7581877

 Al 
  0.7599822  0.7458740  0.5052299

