32 
charge = 0 
 Al 
  0.9927702  0.9933370  0.9862148

 Al 
  0.9991622  0.2303797  0.2615044

 Al 
  0.2495198  0.9979221  0.2634214

 Al 
  0.2198171  0.2464878  0.9995842

 Al 
  0.5070417  0.0151082  0.9863225

 Al 
  0.5008712  0.2501262  0.2562683

 Al 
  0.7698233  0.9963752  0.2528934

 Al 
  0.7290369  0.2443839  0.0025246

 Al 
  0.9988070  0.4944854  0.9820207

 Al 
  0.9951129  0.7280073  0.2301594

 Al 
  0.2528823  0.4879028  0.2412777

 Al 
  0.2578362  0.7461871  0.9917479

 Al 
  0.0053141  0.9952762  0.5175573

 Al 
  0.9920326  0.2445287  0.7511509

 Al 
  0.2524417  0.0275791  0.7394708

 Al 
  0.2409336  0.2807250  0.5032461

 Al 
  0.9796384  0.5052869  0.5119821

 Al 
  0.0127469  0.7573536  0.7465621

 Al 
  0.2569700  0.5033909  0.7678976

 Al 
  0.2589785  0.7552200  0.4964915

 Al 
  0.4840119  0.4960348  0.0197329

 Al 
  0.5136540  0.7513799  0.2297634

 Al 
  0.7519430  0.5071383  0.2513106

 Al 
  0.7417046  0.7428209  0.9990644

 Al 
  0.5078697  0.9877160  0.4952181

 Al 
  0.5082273  0.2541867  0.7421068

 Al 
  0.7563772  0.0113522  0.7558091

 Al 
  0.7567348  0.2334204  0.4919063

 Al 
  0.5188666  0.4952181  0.5055554

 Al 
  0.4952638  0.7696896  0.7569576

 Al 
  0.7337842  0.5050530  0.7586580

 Al 
  0.7598250  0.7459259  0.5056161

