32 
charge = 0 
 Al 
  0.9896936  0.9930140  0.9889473

 Al 
  0.9995508  0.2377531  0.2655586

 Al 
  0.2504307  0.9983479  0.2581766

 Al 
  0.2247005  0.2465695  0.0009517

 Al 
  0.5088399  0.0199371  0.9861591

 Al 
  0.4960101  0.2462935  0.2582248

 Al 
  0.7744864  0.9926699  0.2488862

 Al 
  0.7340849  0.2539986  0.0015643

 Al 
  0.9879845  0.4942094  0.9894708

 Al 
  0.9951611  0.7260396  0.2403111

 Al 
  0.2417776  0.4785283  0.2431390

 Al 
  0.2537424  0.7486077  0.9839624

 Al 
  0.0105477  0.9906502  0.5105230

 Al 
  0.9974642  0.2442515  0.7538154

 Al 
  0.2550827  0.0242760  0.7441785

 Al 
  0.2401651  0.2804205  0.5092384

 Al 
  0.9789132  0.5029974  0.5098696

 Al 
  0.0132939  0.7459334  0.7410400

 Al 
  0.2531446  0.5027561  0.7691562

 Al 
  0.2553636  0.7514257  0.5020927

 Al 
  0.4790085  0.4923209  0.0163779

 Al 
  0.5067856  0.7557745  0.2251089

 Al 
  0.7561519  0.5053376  0.2569464

 Al 
  0.7471647  0.7450918  0.0026410

 Al 
  0.5121727  0.9906428  0.4861046

 Al 
  0.5083894  0.2610044  0.7402431

 Al 
  0.7583375  0.0051012  0.7520964

 Al 
  0.7522982  0.2496931  0.4966227

 Al 
  0.5235162  0.4952403  0.5086110

 Al 
  0.5002401  0.7661688  0.7557052

 Al 
  0.7350515  0.5080565  0.7536904

 Al 
  0.7604475  0.7468875  0.5005841

