32 
charge = 0 
 Al 
  0.9908235  0.9931996  0.9871813

 Al 
  0.9993305  0.2336654  0.2640092

 Al 
  0.2500186  0.9981635  0.2611554

 Al 
  0.2217650  0.2468455  0.0001720

 Al 
  0.5085231  0.0180498  0.9857977

 Al 
  0.4982662  0.2483726  0.2572818

 Al 
  0.7728132  0.9945980  0.2508675

 Al 
  0.7308314  0.2488231  0.0019108

 Al 
  0.9935548  0.4942057  0.9856245

 Al 
  0.9944631  0.7264529  0.2351035

 Al 
  0.2476499  0.4824316  0.2417529

 Al 
  0.2561556  0.7468380  0.9871393

 Al 
  0.0080862  0.9926712  0.5145364

 Al 
  0.9950374  0.2438592  0.7526570

 Al 
  0.2535939  0.0263056  0.7417096

 Al 
  0.2403458  0.2809935  0.5061742

 Al 
  0.9785295  0.5045221  0.5109066

 Al 
  0.0133211  0.7517016  0.7433184

 Al 
  0.2551173  0.5032016  0.7693914

 Al 
  0.2571135  0.7538315  0.4994295

 Al 
  0.4806000  0.4942849  0.0186798

 Al 
  0.5105069  0.7534998  0.2266249

 Al 
  0.7544664  0.5069403  0.2544602

 Al 
  0.7442305  0.7439595  0.0015061

 Al 
  0.5099624  0.9889263  0.4903606

 Al 
  0.5085738  0.2579031  0.7409881

 Al 
  0.7577867  0.0084736  0.7541904

 Al 
  0.7545790  0.2417591  0.4941129

 Al 
  0.5219296  0.4947057  0.5075590

 Al 
  0.4975236  0.7682837  0.7566866

 Al 
  0.7339476  0.5065826  0.7557138

 Al 
  0.7605576  0.7459507  0.5030011

