32 
charge = 0 
 Al 
  0.9902393  0.9931266  0.9878533

 Al 
  0.9994307  0.2353349  0.2647790

 Al 
  0.2502129  0.9982575  0.2599636

 Al 
  0.2229122  0.2468009  0.0004851

 Al 
  0.5087817  0.0189706  0.9858571

 Al 
  0.4972563  0.2475063  0.2576989

 Al 
  0.7736783  0.9937713  0.2500050

 Al 
  0.7320603  0.2509628  0.0017363

 Al 
  0.9911947  0.4941773  0.9872420

 Al 
  0.9945919  0.7261386  0.2373001

 Al 
  0.2452032  0.4805666  0.2422405

 Al 
  0.2552139  0.7474655  0.9856071

 Al 
  0.0091815  0.9917269  0.5129263

 Al 
  0.9961537  0.2439137  0.7531966

 Al 
  0.2541941  0.0255297  0.7427454

 Al 
  0.2402158  0.2808512  0.5074650

 Al 
  0.9785085  0.5039627  0.5104562

 Al 
  0.0133954  0.7492327  0.7422219

 Al 
  0.2542956  0.5030494  0.7694928

 Al 
  0.2563376  0.7529219  0.5006126

 Al 
  0.4797114  0.4934632  0.0178246

 Al 
  0.5089798  0.7544713  0.2257945

 Al 
  0.7553067  0.5064143  0.2556111

 Al 
  0.7454396  0.7444471  0.0021435

 Al 
  0.5108955  0.9896094  0.4884610

 Al 
  0.5085553  0.2593127  0.7406156

 Al 
  0.7581122  0.0070739  0.7533563

 Al 
  0.7535988  0.2452280  0.4951475

 Al 
  0.5228046  0.4947960  0.5081370

 Al 
  0.4986288  0.7674583  0.7563524

 Al 
  0.7342953  0.5072150  0.7547300

 Al 
  0.7606121  0.7462415  0.5019442

