32 
charge = 0 
 Al 
  0.9898050  0.9930437  0.9886540

 Al 
  0.9995248  0.2371306  0.2653891

 Al 
  0.2503824  0.9983305  0.2586456

 Al 
  0.2242265  0.2466450  0.0008304

 Al 
  0.5088535  0.0197206  0.9860613

 Al 
  0.4963108  0.2466004  0.2580974

 Al 
  0.7743193  0.9929434  0.2491622

 Al 
  0.7335404  0.2532226  0.0016014

 Al 
  0.9887914  0.4941946  0.9889053

 Al 
  0.9949767  0.7260309  0.2395488

 Al 
  0.2426501  0.4789899  0.2428890

 Al 
  0.2541347  0.7482909  0.9843325

 Al 
  0.0102161  0.9908990  0.5111504

 Al 
  0.9971561  0.2441401  0.7536718

 Al 
  0.2548512  0.0246126  0.7438159

 Al 
  0.2401639  0.2805542  0.5087892

 Al 
  0.9787647  0.5032622  0.5100156

 Al 
  0.0133434  0.7467576  0.7413061

 Al 
  0.2534392  0.5028402  0.7692886

 Al 
  0.2556000  0.7518291  0.5017338

 Al 
  0.4791347  0.4926105  0.0167690

 Al 
  0.5073511  0.7554502  0.2252376

 Al 
  0.7559725  0.5056458  0.2566333

 Al 
  0.7467217  0.7449322  0.0025519

 Al 
  0.5118509  0.9903730  0.4866739

 Al 
  0.5084451  0.2606022  0.7403223

 Al 
  0.7583003  0.0056037  0.7524269

 Al 
  0.7526199  0.2485954  0.4962428

 Al 
  0.5233887  0.4950931  0.5085256

 Al 
  0.4998218  0.7665116  0.7558883

 Al 
  0.7348300  0.5078461  0.7539206

 Al 
  0.7605131  0.7466982  0.5009195

