32 
charge = 0 
 Al 
  0.9894560  0.9929150  0.9898941

 Al 
  0.9996065  0.2396849  0.2659769

 Al 
  0.2505495  0.9983776  0.2566903

 Al 
  0.2262252  0.2462762  0.0013341

 Al 
  0.5087013  0.0204953  0.9865366

 Al 
  0.4951512  0.2453715  0.2585912

 Al 
  0.7748515  0.9918705  0.2480793

 Al 
  0.7358670  0.2563846  0.0014727

 Al 
  0.9855564  0.4942775  0.9912046

 Al 
  0.9958876  0.7262041  0.2426377

 Al 
  0.2391107  0.4773365  0.2439854

 Al 
  0.2524764  0.7496758  0.9830182

 Al 
  0.0114957  0.9899869  0.5085466

 Al 
  0.9983095  0.2446797  0.7542052

 Al 
  0.2558116  0.0231659  0.7452787

 Al 
  0.2402233  0.2799119  0.5106109

 Al 
  0.9795443  0.5021100  0.5094377

 Al 
  0.0130390  0.7434768  0.7403631

 Al 
  0.2522251  0.5024541  0.7685733

 Al 
  0.2546990  0.7500953  0.5031162

 Al 
  0.4788117  0.4914484  0.0151020

 Al 
  0.5050270  0.7567311  0.2248787

 Al 
  0.7565591  0.5042696  0.2577966

 Al 
  0.7485347  0.7455720  0.0027684

 Al 
  0.5131528  0.9914967  0.4844785

 Al 
  0.5081654  0.2621232  0.7400698

 Al 
  0.7583771  0.0035592  0.7510358

 Al 
  0.7513527  0.2528922  0.4978070

 Al 
  0.5236795  0.4958356  0.5087261

 Al 
  0.5015531  0.7650698  0.7550728

 Al 
  0.7358485  0.5086889  0.7531137

 Al 
  0.7601505  0.7475608  0.4995978

