32 
charge = 0 
 Al 
  0.9893693  0.9927702  0.9912851

 Al 
  0.9995966  0.2423556  0.2663272

 Al 
  0.2506349  0.9983528  0.2545282

 Al 
  0.2284788  0.2457502  0.0018848

 Al 
  0.5083238  0.0210571  0.9872197

 Al 
  0.4941092  0.2441872  0.2590280

 Al 
  0.7750322  0.9908767  0.2470645

 Al 
  0.7385327  0.2596480  0.0013910

 Al 
  0.9823647  0.4944099  0.9935956

 Al 
  0.9972390  0.7267351  0.2458232

 Al 
  0.2354883  0.4762153  0.2453121

 Al 
  0.2505928  0.7513440  0.9821358

 Al 
  0.0126504  0.9892988  0.5057274

 Al 
  0.9992438  0.2454532  0.7546334

 Al 
  0.2568474  0.0214606  0.7467464

 Al 
  0.2404460  0.2789726  0.5124734

 Al 
  0.9808165  0.5007252  0.5088647

 Al 
  0.0124189  0.7402814  0.7397344

 Al 
  0.2509183  0.5019318  0.7674051

 Al 
  0.2539293  0.7480682  0.5043364

 Al 
  0.4789441  0.4902938  0.0132073

 Al 
  0.5025568  0.7579328  0.2249134

 Al 
  0.7567781  0.5025444  0.2587186

 Al 
  0.7504369  0.7462106  0.0026471

 Al 
  0.5144758  0.9927132  0.4825281

 Al 
  0.5077422  0.2634016  0.7399968

 Al 
  0.7583016  0.0014479  0.7494703

 Al 
  0.7501720  0.2568957  0.4994901

 Al 
  0.5233664  0.4969964  0.5085404

 Al 
  0.5034293  0.7634511  0.7540406

 Al 
  0.7372234  0.5095243  0.7526038

 Al 
  0.7595404  0.7486944  0.4983243

