32 
charge = 0 
 Al 
  0.9893656  0.9928073  0.9909262

 Al 
  0.9996114  0.2416811  0.2662616

 Al 
  0.2506225  0.9983677  0.2550864

 Al 
  0.2278934  0.2458950  0.0017425

 Al 
  0.5084352  0.0209346  0.9870316

 Al 
  0.4943580  0.2444755  0.2589241

 Al 
  0.7750198  0.9911143  0.2473108

 Al 
  0.7378397  0.2588288  0.0014071

 Al 
  0.9831518  0.4943728  0.9929904

 Al 
  0.9968615  0.7265705  0.2450200

 Al 
  0.2363955  0.4764442  0.2449619

 Al 
  0.2510829  0.7509034  0.9823165

 Al 
  0.0123744  0.9894498  0.5064477

 Al 
  0.9990322  0.2452403  0.7545357

 Al 
  0.2565826  0.0219110  0.7463826

 Al 
  0.2403742  0.2792362  0.5120068

 Al 
  0.9804539  0.5010915  0.5090082

 Al 
  0.0126070  0.7410673  0.7398631

 Al 
  0.2512537  0.5020766  0.7677355

 Al 
  0.2541075  0.7486003  0.5040493

 Al 
  0.4788723  0.4905784  0.0136973

 Al 
  0.5031855  0.7576432  0.2248701

 Al 
  0.7567583  0.5030048  0.2585107

 Al 
  0.7499554  0.7460509  0.0027065

 Al 
  0.5141453  0.9924026  0.4829897

 Al 
  0.5078610  0.2631058  0.7399980

 Al 
  0.7583313  0.0019801  0.7498762

 Al 
  0.7504567  0.2559279  0.4990582

 Al 
  0.5235025  0.4966660  0.5086233

 Al 
  0.5029491  0.7638706  0.7543179

 Al 
  0.7368472  0.5093176  0.7527053

 Al 
  0.7597149  0.7483875  0.4986374

