32 
charge = 0 
 Al 
  0.9909819  0.9925313  0.9963777

 Al 
  0.9981771  0.2508230  0.2657418

 Al 
  0.2500965  0.9975880  0.2461821

 Al 
  0.2373261  0.2435016  0.0039652

 Al 
  0.5063017  0.0216932  0.9906081

 Al 
  0.4915635  0.2416861  0.2598671

 Al 
  0.7731498  0.9888397  0.2443035

 Al 
  0.7487959  0.2697317  0.0014059

 Al 
  0.9737624  0.4951624  0.0021323

 Al 
  0.0044676  0.7309861  0.2567930

 Al 
  0.2243936  0.4767586  0.2507413

 Al 
  0.2432924  0.7580442  0.9822150

 Al 
  0.0155203  0.9886676  0.4957267

 Al 
  0.0006064  0.2492055  0.7555282

 Al 
  0.2604846  0.0138421  0.7510136

 Al 
  0.2426798  0.2731536  0.5183580

 Al 
  0.9882444  0.4948592  0.5069997

 Al 
  0.0075590  0.7314328  0.7398557

 Al 
  0.2460373  0.4992117  0.7613311

 Al 
  0.2527635  0.7397010  0.5068202

 Al 
  0.4818846  0.4873212  0.0061272

 Al 
  0.4936525  0.7604178  0.2273353

 Al 
  0.7545951  0.4952391  0.2599611

 Al 
  0.7567880  0.7484184  0.0004529

 Al 
  0.5186105  0.9971066  0.4784305

 Al 
  0.5054230  0.2656762  0.7412183

 Al 
  0.7576791  0.9944928  0.7431897

 Al 
  0.7473281  0.2670487  0.5059131

 Al 
  0.5174769  0.5040109  0.5049837

 Al 
  0.5100639  0.7570578  0.7494159

 Al 
  0.7442119  0.5119375  0.7525939

 Al 
  0.7560826  0.7538575  0.4944136

