32 
charge = 0 
 Al 
  0.9923568  0.9928234  0.9982365

 Al 
  0.9967489  0.2530865  0.2646565

 Al 
  0.2493985  0.9969828  0.2427169

 Al 
  0.2409980  0.2428543  0.0047943

 Al 
  0.5056891  0.0213789  0.9922331

 Al 
  0.4910673  0.2419546  0.2598077

 Al 
  0.7713282  0.9889597  0.2434446

 Al 
  0.7526509  0.2722439  0.0015222

 Al 
  0.9724927  0.4957985  0.0055777

 Al 
  0.0080392  0.7336815  0.2608250

 Al 
  0.2215423  0.4790048  0.2528637

 Al 
  0.2403928  0.7604896  0.9834909

 Al 
  0.0162381  0.9892270  0.4921563

 Al 
  0.0003552  0.2508527  0.7558029

 Al 
  0.2617160  0.0100502  0.7519888

 Al 
  0.2443431  0.2693716  0.5200572

 Al 
  0.9921477  0.4923605  0.5063759

 Al 
  0.0044985  0.7294206  0.7408074

 Al 
  0.2441327  0.4978590  0.7587174

 Al 
  0.2530333  0.7361381  0.5070096

 Al 
  0.4837409  0.4870143  0.0034206

 Al 
  0.4901441  0.7602025  0.2290246

 Al 
  0.7523501  0.4923766  0.2596926

 Al 
  0.7587991  0.7494109  0.9992154

 Al 
  0.5197639  0.9988911  0.4782585

 Al 
  0.5042189  0.2656515  0.7423345

 Al 
  0.7576358  0.9922417  0.7405104

 Al 
  0.7467712  0.2690993  0.5087063

 Al 
  0.5130946  0.5079031  0.5023934

 Al 
  0.5122952  0.7542708  0.7474246

 Al 
  0.7476387  0.5124239  0.7529602

 Al 
  0.7543785  0.7559787  0.4929719

