32 
charge = 0 
 Al 
  0.9926118  0.9929088  0.9985174

 Al 
  0.9964618  0.2533587  0.2644275

 Al 
  0.2492513  0.9968714  0.2421600

 Al 
  0.2415908  0.2427850  0.0049255

 Al 
  0.5056247  0.0212898  0.9925066

 Al 
  0.4910202  0.2420957  0.2597718

 Al 
  0.7709693  0.9890439  0.2433110

 Al 
  0.7532288  0.2725199  0.0015445

 Al 
  0.9724630  0.4959408  0.0061408

 Al 
  0.0086332  0.7341753  0.2614462

 Al 
  0.2212118  0.4794812  0.2531892

 Al 
  0.2399349  0.7608386  0.9837619

 Al 
  0.0163358  0.9893706  0.4916217

 Al 
  0.0002735  0.2511126  0.7558537

 Al 
  0.2618930  0.0093894  0.7520890

 Al 
  0.2446636  0.2686538  0.5202750

 Al 
  0.9928147  0.4919596  0.5062831

 Al 
  0.0039515  0.7292015  0.7410066

 Al 
  0.2438369  0.4976338  0.7583139

 Al 
  0.2531137  0.7355663  0.5070009

 Al 
  0.4840689  0.4870328  0.0029986

 Al 
  0.4895847  0.7600775  0.2293290

 Al 
  0.7519009  0.4919435  0.2596134

 Al 
  0.7590775  0.7495867  0.9990149

 Al 
  0.5199074  0.9991857  0.4783241

 Al 
  0.5040109  0.2655982  0.7425486

 Al 
  0.7576568  0.9919224  0.7400772

 Al 
  0.7467081  0.2693122  0.5091716

 Al 
  0.5122791  0.5085763  0.5019120

 Al 
  0.5126120  0.7538055  0.7471091

 Al 
  0.7482105  0.5124585  0.7530221

 Al 
  0.7540951  0.7563004  0.4927330

