32 
charge = 0 
 Al 
  0.9921068  0.9927504  0.9979469

 Al 
  0.9970224  0.2527845  0.2648706

 Al 
  0.2495359  0.9970905  0.2432813

 Al 
  0.2404002  0.2429348  0.0046619

 Al 
  0.5057658  0.0214569  0.9919608

 Al 
  0.4911254  0.2418420  0.2598349

 Al 
  0.7716697  0.9888941  0.2435808

 Al 
  0.7520531  0.2719259  0.0014999

 Al 
  0.9725756  0.4956673  0.0050134

 Al 
  0.0074427  0.7332001  0.2601901

 Al 
  0.2219148  0.4785555  0.2525296

 Al 
  0.2408581  0.7601208  0.9832360

 Al 
  0.0161341  0.9890983  0.4927083

 Al 
  0.0004257  0.2505878  0.7557559

 Al 
  0.2615304  0.0107012  0.7518712

 Al 
  0.2440349  0.2700621  0.5198196

 Al 
  0.9914843  0.4927664  0.5064712

 Al 
  0.0050356  0.7296730  0.7406193

 Al 
  0.2444359  0.4980855  0.7591307

 Al 
  0.2529615  0.7367172  0.5070083

 Al 
  0.4834179  0.4870155  0.0038513

 Al 
  0.4907096  0.7603015  0.2287263

 Al 
  0.7527771  0.4928234  0.2597619

 Al 
  0.7585045  0.7492389  0.9994196

 Al 
  0.5196067  0.9985954  0.4782189

 Al 
  0.5044243  0.2656898  0.7421279

 Al 
  0.7576246  0.9925771  0.7409485

 Al 
  0.7468430  0.2688506  0.5082409

 Al 
  0.5138867  0.5072360  0.5028600

 Al 
  0.5119623  0.7547349  0.7477452

 Al 
  0.7470657  0.5123744  0.7528984

 Al 
  0.7546619  0.7556470  0.4932095

