32 
charge = 0 
 Al 
  0.9916316  0.9926340  0.9973430

 Al 
  0.9975261  0.2520878  0.2652591

 Al 
  0.2497859  0.9972996  0.2444260

 Al 
  0.2391874  0.2431303  0.0043896

 Al 
  0.5059502  0.0215806  0.9914175

 Al 
  0.4912702  0.2416997  0.2598708

 Al 
  0.7723083  0.9888186  0.2438605

 Al 
  0.7508019  0.2711673  0.0014591

 Al 
  0.9728999  0.4954396  0.0038736

 Al 
  0.0062497  0.7322769  0.2588758

 Al 
  0.2227860  0.4777449  0.2518378

 Al 
  0.2418098  0.7593349  0.9827756

 Al 
  0.0159089  0.9888842  0.4938642

 Al 
  0.0005334  0.2500446  0.7556631

 Al 
  0.2611356  0.0119808  0.7515804

 Al 
  0.2434570  0.2713690  0.5192886

 Al 
  0.9901725  0.4935907  0.5066717

 Al 
  0.0060801  0.7302770  0.7402777

 Al 
  0.2450584  0.4985384  0.7599871

 Al 
  0.2528489  0.7378942  0.5069712

 Al 
  0.4827880  0.4870798  0.0047374

 Al 
  0.4918643  0.7604215  0.2281496

 Al 
  0.7535679  0.4937540  0.2598733

 Al 
  0.7578659  0.7489035  0.9998317

 Al 
  0.5192490  0.9980038  0.4782226

 Al 
  0.5048290  0.2657282  0.7417393

 Al 
  0.7576246  0.9932961  0.7418346

 Al 
  0.7470088  0.2682441  0.5073103

 Al 
  0.5153990  0.5059205  0.5037523

 Al 
  0.5112482  0.7556618  0.7484011

 Al 
  0.7459210  0.5122370  0.7527734

 Al 
  0.7552312  0.7549552  0.4936860

