32 
charge = 0 
 Al 
  0.9911898  0.9925573  0.9967081

 Al 
  0.9979741  0.2512735  0.2655945

 Al 
  0.2500012  0.9974952  0.2455918

 Al 
  0.2379523  0.2433691  0.0041087

 Al 
  0.5061754  0.0216660  0.9908767

 Al 
  0.4914559  0.2416650  0.2598757

 Al 
  0.7728850  0.9888149  0.2441513

 Al 
  0.7494815  0.2702478  0.0014220

 Al 
  0.9734258  0.4952465  0.0027164

 Al 
  0.0050592  0.7314031  0.2575021

 Al 
  0.2238181  0.4770556  0.2511138

 Al 
  0.2427912  0.7584872  0.9823833

 Al 
  0.0156576  0.9887258  0.4950894

 Al 
  0.0005940  0.2494876  0.7555740

 Al 
  0.2607086  0.0132295  0.7512190

 Al 
  0.2429273  0.2725806  0.5186847

 Al 
  0.9888805  0.4944322  0.5068858

 Al 
  0.0070789  0.7310146  0.7399832

 Al 
  0.2457057  0.4989889  0.7608757

 Al 
  0.2527808  0.7390946  0.5068846

 Al 
  0.4821803  0.4872222  0.0056557

 Al 
  0.4930486  0.7604426  0.2275989

 Al 
  0.7542733  0.4947329  0.2599426

 Al 
  0.7571618  0.7485780  0.0002463

 Al 
  0.5188357  0.9974085  0.4783340

 Al 
  0.5052262  0.2657084  0.7413841

 Al 
  0.7576556  0.9940795  0.7427355

 Al 
  0.7472118  0.2674855  0.5063784

 Al 
  0.5168110  0.5046371  0.5045889

 Al 
  0.5104735  0.7565913  0.7490743

 Al 
  0.7447787  0.5120489  0.7526521

 Al 
  0.7557992  0.7542300  0.4941686

