32 
charge = 0 
 Al 
  0.9945721  0.9938704  0.0002611

 Al 
  0.9940795  0.2544181  0.2624387

 Al 
  0.2479791  0.9960819  0.2384313

 Al 
  0.2456029  0.2426971  0.0057646

 Al 
  0.5055678  0.0203455  0.9944483

 Al 
  0.4909435  0.2439087  0.2593386

 Al 
  0.7679867  0.9901552  0.2423754

 Al 
  0.7567138  0.2732055  0.0016868

 Al 
  0.9738342  0.4973566  0.0100564

 Al 
  0.0127073  0.7380130  0.2653965

 Al 
  0.2201389  0.4835825  0.2552312

 Al 
  0.2369103  0.7626863  0.9860886

 Al 
  0.0168865  0.9908049  0.4883632

 Al 
  0.9994208  0.2527721  0.7562967

 Al 
  0.2629103  0.0044664  0.7522487

 Al 
  0.2473108  0.2628001  0.5212081

 Al 
  0.9975781  0.4892864  0.5057015

 Al 
  0.9999059  0.7286124  0.7426761

 Al 
  0.2419509  0.4960769  0.7558178

 Al 
  0.2538785  0.7317992  0.5066903

 Al 
  0.4865403  0.4877778  0.0002314

 Al 
  0.4858497  0.7584278  0.2316457

 Al 
  0.7481338  0.4893421  0.2588473

 Al 
  0.7605391  0.7509381  0.9977204

 Al 
  0.5204482  0.0013143  0.4795394

 Al 
  0.5025024  0.2648854  0.7442688

 Al 
  0.7580726  0.9901601  0.7371677

 Al 
  0.7464420  0.2698728  0.5124561

 Al 
  0.5059118  0.5133607  0.4981399

 Al 
  0.5143731  0.7505000  0.7450894

 Al 
  0.7521571  0.5122618  0.7534058

 Al 
  0.7521546  0.7582187  0.4909695

