32 
charge = 0 
 Al 
  0.9948728  0.9940684  0.0004765

 Al 
  0.9936897  0.2544503  0.2620972

 Al 
  0.2477637  0.9959730  0.2379288

 Al 
  0.2461574  0.2427466  0.0058722

 Al 
  0.5056222  0.0201587  0.9947305

 Al 
  0.4909683  0.2442886  0.2592508

 Al 
  0.7674868  0.9903916  0.2422392

 Al 
  0.7571284  0.2731164  0.0017016

 Al 
  0.9742637  0.4976301  0.0106183

 Al 
  0.0132667  0.7386169  0.2659039

 Al 
  0.2201710  0.4842693  0.2554874

 Al 
  0.2365019  0.7628496  0.9864809

 Al 
  0.0169459  0.9910759  0.4879697

 Al 
  0.9992612  0.2529801  0.7563796

 Al 
  0.2630229  0.0037127  0.7521917

 Al 
  0.2477501  0.2618360  0.5212477

 Al 
  0.9982662  0.4889251  0.5056247

 Al 
  0.9993070  0.7286657  0.7429508

 Al 
  0.2417083  0.4958604  0.7555133

 Al 
  0.2540072  0.7313041  0.5066185

 Al 
  0.4869239  0.4879783  0.9998614

 Al 
  0.4853411  0.7580776  0.2320046

 Al 
  0.7475038  0.4890389  0.2587087

 Al 
  0.7606752  0.7511509  0.9975571

 Al 
  0.5204532  0.0016323  0.4798203

 Al 
  0.5022784  0.2647357  0.7445473

 Al 
  0.7581729  0.9899782  0.7367717

 Al 
  0.7464247  0.2698270  0.5129288

 Al 
  0.5049119  0.5140414  0.4975422

 Al 
  0.5145574  0.7500173  0.7448307

 Al 
  0.7527078  0.5121640  0.7534516

 Al 
  0.7518860  0.7584377  0.4906948

