32 
charge = 0 
 Al 
  0.9993800  0.9990100  0.0023328

 Al 
  0.9874499  0.2519516  0.2558005

 Al 
  0.2443567  0.9952230  0.2321828

 Al 
  0.2533080  0.2454755  0.0069502

 Al 
  0.5083610  0.0156218  0.9988491

 Al 
  0.4922182  0.2527424  0.2573845

 Al 
  0.7580021  0.9959074  0.2401453

 Al 
  0.7605205  0.2664509  0.0015321

 Al 
  0.9869252  0.5037919  0.0187293

 Al 
  0.0194223  0.7486981  0.2711388

 Al 
  0.2262239  0.4958059  0.2577818

 Al 
  0.2315294  0.7613274  0.9933741

 Al 
  0.0170326  0.9970100  0.4848856

 Al 
  0.9964767  0.2545951  0.7582446

 Al 
  0.2636726  0.9913272  0.7491139

 Al 
  0.2556717  0.2443988  0.5185882

 Al 
  0.0076556  0.4843832  0.5045963

 Al 
  0.9911675  0.7336184  0.7474840

 Al 
  0.2391491  0.4932107  0.7529120

 Al 
  0.2554106  0.7268910  0.5055851

 Al 
  0.4934620  0.4940015  0.9952812

 Al 
  0.4790072  0.7501980  0.2377110

 Al 
  0.7363027  0.4873670  0.2560715

 Al 
  0.7603609  0.7546272  0.9964210

 Al 
  0.5179372  0.0066383  0.4866900

 Al 
  0.4990372  0.2611405  0.7493565

 Al 
  0.7607940  0.9896367  0.7321048

 Al 
  0.7467130  0.2660487  0.5193382

 Al 
  0.4891255  0.5219692  0.4876838

 Al 
  0.5150673  0.7430375  0.7422727

 Al 
  0.7596678  0.5084018  0.7537721

 Al 
  0.7485879  0.7594933  0.4856864

