32 
charge = 0 
 Al 
  0.9970497  0.9959408  0.0017029

 Al 
  0.9907393  0.2538822  0.2593523

 Al 
  0.2461079  0.9953492  0.2347198

 Al 
  0.2498503  0.2435758  0.0065244

 Al 
  0.5064898  0.0184347  0.9967242

 Al 
  0.4913767  0.2477340  0.2584823

 Al 
  0.7634474  0.9925697  0.2412467

 Al 
  0.7593857  0.2711499  0.0017326

 Al 
  0.9789156  0.5000879  0.0145562

 Al 
  0.0168259  0.7432033  0.2689768

 Al 
  0.2217563  0.4895871  0.2569786

 Al 
  0.2338436  0.7631194  0.9895612

 Al 
  0.0172009  0.9934632  0.4858039

 Al 
  0.9979704  0.2541396  0.7571160

 Al 
  0.2635773  0.9980818  0.7512239

 Al 
  0.2512351  0.2541966  0.5207712

 Al 
  0.0030159  0.4865551  0.5051186

 Al 
  0.9951450  0.7300468  0.7450609

 Al 
  0.2402294  0.4944508  0.7538080

 Al 
  0.2549094  0.7283550  0.5060331

 Al 
  0.4898371  0.4901205  0.9974605

 Al 
  0.4820046  0.7548723  0.2346678

 Al 
  0.7425152  0.4875254  0.2575825

 Al 
  0.7610836  0.7527598  0.9966685

 Al 
  0.5199000  0.0039701  0.4825021

 Al 
  0.5006930  0.2633422  0.7466945

 Al 
  0.7591802  0.9892481  0.7342223

 Al 
  0.7464383  0.2686983  0.5161848

 Al 
  0.4974605  0.5185102  0.4930053

 Al 
  0.5153272  0.7466116  0.7432924

 Al 
  0.7563635  0.5109264  0.7536867

 Al 
  0.7501262  0.7594896  0.4885389

