32 
charge = 0 
 Al 
  0.0005507  0.0011769  0.0022412

 Al 
  0.9858361  0.2504864  0.2536978

 Al 
  0.2436921  0.9956116  0.2314564

 Al 
  0.2548500  0.2469853  0.0069922

 Al 
  0.5097112  0.0135711  0.9999171

 Al 
  0.4928184  0.2558450  0.2566828

 Al 
  0.7545443  0.9981325  0.2396156

 Al 
  0.7604958  0.2628150  0.0012487

 Al 
  0.9924224  0.5061952  0.0208529

 Al 
  0.0198579  0.7518068  0.2716264

 Al 
  0.2299416  0.4990533  0.2576816

 Al 
  0.2306977  0.7592075  0.9955361

 Al 
  0.0166205  0.9993738  0.4852396

 Al 
  0.9958294  0.2543476  0.7589897

 Al 
  0.2634585  0.9873880  0.7475620

 Al 
  0.2582781  0.2385550  0.5165338

 Al 
  0.0097136  0.4834154  0.5042968

 Al 
  0.9895203  0.7365749  0.7487105

 Al 
  0.2388768  0.4926971  0.7529070

 Al 
  0.2551087  0.7274380  0.5056717

 Al 
  0.4956475  0.4968974  0.9943023

 Al 
  0.4778006  0.7473665  0.2393099

 Al 
  0.7328313  0.4881541  0.2551099

 Al 
  0.7593708  0.7556123  0.9967576

 Al 
  0.5161155  0.0080541  0.4894721

 Al 
  0.4982216  0.2595936  0.7509480

 Al 
  0.7618534  0.9904609  0.7313970

 Al 
  0.7470001  0.2640228  0.5206623

 Al 
  0.4849339  0.5226301  0.4848597

 Al 
  0.5143743  0.7412504  0.7420784

 Al 
  0.7610316  0.5064366  0.7537560

 Al 
  0.7479964  0.7588473  0.4838869

