32 
charge = 0 
 Al 
  0.0007549  0.0016138  0.0021793

 Al 
  0.9855700  0.2501955  0.2533043

 Al 
  0.2436142  0.9957354  0.2313920

 Al 
  0.2551000  0.2473009  0.0069799

 Al 
  0.5099748  0.0131466  0.0000990

 Al 
  0.4929372  0.2564291  0.2565442

 Al 
  0.7538699  0.9985731  0.2395339

 Al 
  0.7604314  0.2620662  0.0011769

 Al 
  0.9935077  0.5066581  0.0212192

 Al 
  0.0198270  0.7523774  0.2716474

 Al 
  0.2307312  0.4996151  0.2576073

 Al 
  0.2305950  0.7587149  0.9959309

 Al 
  0.0165091  0.9998441  0.4853906

 Al 
  0.9957415  0.2542523  0.7591357

 Al 
  0.2633941  0.9866479  0.7472526

 Al 
  0.2587619  0.2374561  0.5160784

 Al 
  0.0100366  0.4832595  0.5042387

 Al 
  0.9892778  0.7372048  0.7489171

 Al 
  0.2388595  0.4926179  0.7529479

 Al 
  0.2549812  0.7276892  0.5057324

 Al 
  0.4960646  0.4974964  0.9941401

 Al 
  0.4776273  0.7468442  0.2395871

 Al 
  0.7322100  0.4883855  0.2549193

 Al 
  0.7591357  0.7557831  0.9968677

 Al 
  0.5157109  0.0083003  0.4900191

 Al 
  0.4980818  0.2592768  0.7512537

 Al 
  0.7620563  0.9906675  0.7313153

 Al 
  0.7470657  0.2636045  0.5208554

 Al 
  0.4842273  0.5226078  0.4843721

 Al 
  0.5141973  0.7409423  0.7420759

 Al 
  0.7612383  0.5060257  0.7537498

 Al 
  0.7479122  0.7586654  0.4835379

