32 
charge = 0 
 Al 
  0.0013081  0.0029157  0.0019182

 Al 
  0.9848869  0.2493416  0.2521917

 Al 
  0.2434954  0.9962007  0.2313536

 Al 
  0.2557423  0.2482662  0.0069019

 Al 
  0.5107272  0.0118459  0.0005755

 Al 
  0.4932825  0.2580862  0.2561296

 Al 
  0.7518935  0.9998750  0.2393471

 Al 
  0.7601307  0.2598102  0.0009306

 Al 
  0.9966895  0.5079971  0.0222031

 Al 
  0.0195065  0.7539874  0.2715633

 Al 
  0.2331605  0.5011249  0.2572756

 Al 
  0.2304193  0.7571271  0.9970373

 Al 
  0.0161094  0.0012413  0.4859896

 Al 
  0.9955708  0.2538884  0.7595552

 Al 
  0.2631590  0.9845292  0.7463480

 Al 
  0.2601245  0.2343201  0.5146367

 Al 
  0.0108361  0.4828610  0.5040666

 Al 
  0.9887159  0.7391441  0.7494567

 Al 
  0.2388805  0.4924236  0.7531385

 Al 
  0.2544602  0.7287189  0.5060009

 Al 
  0.4972724  0.4993181  0.9937095

 Al 
  0.4772388  0.7453975  0.2403309

 Al 
  0.7305109  0.4892196  0.2543550

 Al 
  0.7583696  0.7562410  0.9972848

 Al 
  0.5144349  0.0089612  0.4916242

 Al 
  0.4977117  0.2583164  0.7521435

 Al 
  0.7626355  0.9913618  0.7311816

 Al 
  0.7472786  0.2623348  0.5212836

 Al 
  0.4823796  0.5222378  0.4830825

 Al 
  0.5136070  0.7401131  0.7421328

 Al 
  0.7617383  0.5047745  0.7537300

 Al 
  0.7477241  0.7580194  0.4825182

