32 
charge = 0 
 Al 
  0.0001139  0.0003032  0.0023217

 Al 
  0.9864264  0.2510754  0.2545122

 Al 
  0.2439050  0.9954099  0.2316643

 Al 
  0.2542931  0.2463640  0.0069972

 Al 
  0.5091728  0.0144089  0.9995211

 Al 
  0.4925783  0.2546347  0.2569613

 Al 
  0.7559131  0.9972452  0.2398050

 Al 
  0.7605663  0.2642976  0.0013774

 Al 
  0.9902282  0.5052460  0.0200597

 Al 
  0.0198022  0.7506114  0.2715101

 Al 
  0.2284008  0.4978380  0.2577781

 Al 
  0.2309663  0.7601294  0.9947069

 Al 
  0.0168148  0.9984295  0.4850168

 Al 
  0.9960497  0.2544924  0.7586951

 Al 
  0.2635674  0.9889189  0.7481857

 Al 
  0.2572694  0.2408284  0.5174038

 Al 
  0.0089798  0.4837644  0.5044144

 Al 
  0.9900921  0.7353485  0.7482575

 Al 
  0.2389473  0.4928791  0.7528637

 Al 
  0.2552968  0.7270766  0.5055950

 Al 
  0.4947911  0.4957143  0.9946587

 Al 
  0.4782152  0.7484605  0.2387110

 Al 
  0.7341518  0.4877630  0.2554923

 Al 
  0.7598077  0.7552436  0.9965781

 Al 
  0.5168865  0.0075219  0.4883657

 Al 
  0.4985236  0.2602198  0.7503242

 Al 
  0.7614363  0.9900859  0.7316197

 Al 
  0.7468764  0.2648495  0.5202032

 Al 
  0.4864833  0.5225199  0.4859165

 Al 
  0.5146911  0.7419162  0.7421180

 Al 
  0.7605539  0.5072435  0.7537659

 Al 
  0.7481969  0.7591617  0.4845985

