32 
charge = 0 
 Al 
  0.0027635  0.0070331  0.0003539

 Al 
  0.9838411  0.2468578  0.2491300

 Al 
  0.2443592  0.9987525  0.2326927

 Al 
  0.2569489  0.2515606  0.0063338

 Al 
  0.5125377  0.0071927  0.0014220

 Al 
  0.4942837  0.2624462  0.2546322

 Al 
  0.7457341  0.0040493  0.2394956

 Al 
  0.7580355  0.2523897  0.9997983

 Al 
  0.0062373  0.5117370  0.0242810

 Al 
  0.0161155  0.7583622  0.2698245

 Al 
  0.2416564  0.5043872  0.2551161

 Al 
  0.2313128  0.7510099  0.9999889

 Al 
  0.0140030  0.0058289  0.4894287

 Al 
  0.9961660  0.2519195  0.7607420

 Al 
  0.2619437  0.9784565  0.7437788

 Al 
  0.2636429  0.2256188  0.5090849

 Al 
  0.0119289  0.4822113  0.5034268

 Al 
  0.9884350  0.7459952  0.7504579

 Al 
  0.2396886  0.4921551  0.7542943

 Al 
  0.2513254  0.7349314  0.5077471

 Al 
  0.5009084  0.5055591  0.9927330

 Al 
  0.4773229  0.7420660  0.2418915

 Al 
  0.7267462  0.4933976  0.2524368

 Al 
  0.7552893  0.7571940  0.9995421

 Al 
  0.5096827  0.0101542  0.4965979

 Al 
  0.4968962  0.2549230  0.7549564

 Al 
  0.7641144  0.9942961  0.7318499

 Al 
  0.7481350  0.2579501  0.5210348

 Al 
  0.4789317  0.5178989  0.4808871

 Al 
  0.5110935  0.7382382  0.7428605

 Al 
  0.7623348  0.5005470  0.7537288

 Al 
  0.7475843  0.7548834  0.4794527

