32 
charge = 0 
 Al 
  0.0022264  0.0054366  0.0010915

 Al 
  0.9840367  0.2477736  0.2502475

 Al 
  0.2437800  0.9975484  0.2319081

 Al 
  0.2566135  0.2502314  0.0066036

 Al 
  0.5119747  0.0091283  0.0012190

 Al 
  0.4939124  0.2609264  0.2552745

 Al 
  0.7481387  0.0023984  0.2392765

 Al 
  0.7590738  0.2553327  0.0003069

 Al 
  0.0026273  0.5103893  0.0236610

 Al 
  0.0178828  0.7567732  0.2707849

 Al 
  0.2382023  0.5033835  0.2561692

 Al 
  0.2306705  0.7535778  0.9989258

 Al 
  0.0150042  0.0039949  0.4877952

 Al 
  0.9956945  0.2528365  0.7603126

 Al 
  0.2625118  0.9807188  0.7447069

 Al 
  0.2624288  0.2287845  0.5114462

 Al 
  0.0117469  0.4823524  0.5037065

 Al 
  0.9882778  0.7431897  0.7501955

 Al 
  0.2392283  0.4921972  0.7537597

 Al 
  0.2528266  0.7319551  0.5069068

 Al 
  0.4995124  0.5030320  0.9930560

 Al 
  0.4770395  0.7431006  0.2414262

 Al 
  0.7278934  0.4914744  0.2532263

 Al 
  0.7566086  0.7569130  0.9984790

 Al 
  0.5116591  0.0098819  0.4946673

 Al 
  0.4971561  0.2563289  0.7538463

 Al 
  0.7636219  0.9930226  0.7313858

 Al 
  0.7477662  0.2597384  0.5214531

 Al 
  0.4798488  0.5201871  0.4813524

 Al 
  0.5121912  0.7388409  0.7424868

 Al 
  0.7622704  0.5022375  0.7537090

 Al 
  0.7475744  0.7563140  0.4806136

