32 
charge = 0 
 Al 
  0.0016373  0.0037709  0.0016843

 Al 
  0.9845280  0.2487959  0.2515036

 Al 
  0.2435127  0.9965893  0.2314502

 Al 
  0.2560888  0.2489171  0.0068214

 Al 
  0.5111876  0.0109599  0.0008354

 Al 
  0.4935028  0.2591060  0.2558524

 Al 
  0.7506151  0.0007264  0.2392765

 Al 
  0.7598448  0.2583102  0.0007425

 Al 
  0.9987364  0.5088399  0.0227625

 Al 
  0.0191067  0.7549762  0.2713925

 Al 
  0.2348188  0.5019863  0.2569712

 Al 
  0.2304131  0.7559923  0.9977117

 Al 
  0.0157888  0.0021633  0.4865044

 Al 
  0.9955398  0.2535840  0.7598213

 Al 
  0.2629697  0.9831976  0.7457725

 Al 
  0.2609561  0.2323672  0.5136181

 Al 
  0.0112346  0.4826506  0.5039503

 Al 
  0.9884733  0.7404708  0.7497525

 Al 
  0.2389510  0.4923246  0.7533154

 Al 
  0.2540023  0.7296272  0.5062509

 Al 
  0.4980422  0.5005458  0.9934644

 Al 
  0.4770878  0.7445386  0.2407529

 Al 
  0.7295208  0.4898854  0.2539812

 Al 
  0.7578140  0.7565009  0.9976301

 Al 
  0.5135402  0.0093300  0.4926625

 Al 
  0.4975001  0.2576655  0.7527202

 Al 
  0.7629932  0.9918779  0.7311816

 Al 
  0.7474321  0.2614772  0.5214432

 Al 
  0.4813697  0.5217440  0.4823771

 Al 
  0.5131677  0.7396354  0.7422182

 Al 
  0.7619796  0.5039317  0.7537176

 Al 
  0.7476449  0.7575108  0.4818623

