32 
charge = 0 
 Al 
  0.0038538  0.0099277  0.9985521

 Al 
  0.9843386  0.2454507  0.2472155

 Al 
  0.2464680  0.0018502  0.2351171

 Al 
  0.2571865  0.2542535  0.0057460

 Al 
  0.5127630  0.0029120  0.0012735

 Al 
  0.4949470  0.2644721  0.2529615

 Al 
  0.7410017  0.0073573  0.2407146

 Al 
  0.7551297  0.2466351  0.9985904

 Al 
  0.0124536  0.5136800  0.0247104

 Al 
  0.0110737  0.7610378  0.2668123

 Al 
  0.2486436  0.5053190  0.2523279

 Al 
  0.2339352  0.7456772  0.0017078

 Al 
  0.0112185  0.0095466  0.4936897

 Al 
  0.9981783  0.2496164  0.7613781

 Al 
  0.2604500  0.9745990  0.7424855

 Al 
  0.2652208  0.2206166  0.5037968

 Al 
  0.0115168  0.4824080  0.5026533

 Al 
  0.9896750  0.7518118  0.7505309

 Al 
  0.2412145  0.4923543  0.7555034

 Al 
  0.2474989  0.7425672  0.5097470

 Al 
  0.5035493  0.5106913  0.9922727

 Al 
  0.4789045  0.7413866  0.2423383

 Al 
  0.7260160  0.4981870  0.2506126

 Al 
  0.7523761  0.7573821  0.0022821

 Al 
  0.5056173  0.0096480  0.5003044

 Al 
  0.4965608  0.2518242  0.7571593

 Al 
  0.7645376  0.9971301  0.7335639

 Al 
  0.7489444  0.2541743  0.5188060

 Al 
  0.4786174  0.5113163  0.4818907

 Al 
  0.5085615  0.7375328  0.7438134

 Al 
  0.7618856  0.4972576  0.7539020

 Al 
  0.7476622  0.7513774  0.4775407

