32 
charge = 0 
 Al 
  0.0030271  0.0078004  0.9999381

 Al 
  0.9838548  0.2464470  0.2486152

 Al 
  0.2447688  0.9994456  0.2331989

 Al 
  0.2570578  0.2522313  0.0061878

 Al 
  0.5127184  0.0061767  0.0014554

 Al 
  0.4944557  0.2630860  0.2542721

 Al 
  0.7445461  0.0048735  0.2396961

 Al 
  0.7574118  0.2509306  0.9995174

 Al 
  0.0079291  0.5123261  0.0244901

 Al 
  0.0150364  0.7590899  0.2692082

 Al 
  0.2434026  0.5047510  0.2544998

 Al 
  0.2317917  0.7496844  0.0004703

 Al 
  0.0134102  0.0067534  0.4903718

 Al 
  0.9965311  0.2513984  0.7609302

 Al 
  0.2616158  0.9774021  0.7433741

 Al 
  0.2641478  0.2241931  0.5078325

 Al 
  0.0119140  0.4821989  0.5032659

 Al 
  0.9886355  0.7474296  0.7505284

 Al 
  0.2399906  0.4921675  0.7545864

 Al 
  0.2504628  0.7366479  0.5082211

 Al 
  0.5015853  0.5068375  0.9925969

 Al 
  0.4775890  0.7417133  0.2420561

 Al 
  0.7263613  0.4944829  0.2520185

 Al 
  0.7545901  0.7572868  0.0001522

 Al 
  0.5086704  0.0101715  0.4975434

 Al 
  0.4967922  0.2541867  0.7555109

 Al 
  0.7642988  0.9949743  0.7321791

 Al 
  0.7483305  0.2570318  0.5206562

 Al 
  0.4786756  0.5164918  0.4808834

 Al 
  0.5105007  0.7380006  0.7430783

 Al 
  0.7622915  0.4997079  0.7537535

 Al 
  0.7476053  0.7540827  0.4789144

