32 
charge = 0 
 Al 
  0.0040010  0.0102470  0.9983070

 Al 
  0.9844822  0.2453257  0.2470014

 Al 
  0.2468170  0.0022907  0.2354883

 Al 
  0.2571828  0.2545876  0.0056755

 Al 
  0.5126887  0.0023390  0.0011992

 Al 
  0.4950287  0.2646169  0.2527028

 Al 
  0.7404151  0.0077719  0.2409509

 Al 
  0.7546916  0.2459396  0.9984246

 Al 
  0.0131095  0.5138359  0.0246869

 Al 
  0.0103188  0.7613286  0.2663346

 Al 
  0.2495025  0.5053388  0.2519294

 Al 
  0.2344005  0.7450262  0.0018799

 Al 
  0.0107903  0.0100094  0.4943060

 Al 
  0.9985335  0.2492909  0.7614326

 Al 
  0.2602309  0.9741956  0.7423977

 Al 
  0.2653284  0.2201376  0.5030927

 Al 
  0.0114079  0.4824811  0.5025283

 Al 
  0.9899052  0.7525432  0.7505062

 Al 
  0.2414658  0.4924100  0.7556544

 Al 
  0.2469630  0.7436402  0.5099995

 Al 
  0.5038661  0.5113249  0.9922293

 Al 
  0.4792003  0.7414472  0.2423642

 Al 
  0.7260829  0.4988590  0.2503527

 Al 
  0.7519974  0.7573722  0.0026756

 Al 
  0.5051210  0.0094674  0.5007512

 Al 
  0.4965323  0.2514083  0.7574279

 Al 
  0.7645216  0.9975001  0.7338523

 Al 
  0.7490483  0.2536842  0.5183914

 Al 
  0.4787015  0.5103336  0.4822175

 Al 
  0.5082199  0.7374895  0.7439421

 Al 
  0.7617816  0.4968665  0.7539392

 Al 
  0.7476635  0.7508898  0.4773588

