32 
charge = 0 
 Al 
  0.0044639  0.0111269  0.9975657

 Al 
  0.9850144  0.2450324  0.2463925

 Al 
  0.2479580  0.0036483  0.2366653

 Al 
  0.2571358  0.2555641  0.0054750

 Al 
  0.5123088  0.0005866  0.0009047

 Al 
  0.4952836  0.2648879  0.2518563

 Al 
  0.7386788  0.0090020  0.2417714

 Al 
  0.7532993  0.2439137  0.9979197

 Al 
  0.0148681  0.5141713  0.0245087

 Al 
  0.0079328  0.7621492  0.2647777

 Al 
  0.2520197  0.5052782  0.2506980

 Al 
  0.2359784  0.7431550  0.0023340

 Al 
  0.0094018  0.0113794  0.4962353

 Al 
  0.9997290  0.2482847  0.7615576

 Al 
  0.2595404  0.9731350  0.7422665

 Al 
  0.2655153  0.2189322  0.5009542

 Al 
  0.0110254  0.4827657  0.5021100

 Al 
  0.9906725  0.7547040  0.7503973

 Al 
  0.2422962  0.4926229  0.7560863

 Al 
  0.2453109  0.7469333  0.5107074

 Al 
  0.5047943  0.5131739  0.9921143

 Al 
  0.4802077  0.7418358  0.2424261

 Al 
  0.7265036  0.5009356  0.2495260

 Al 
  0.7508725  0.7573004  0.0039020

 Al 
  0.5036904  0.0087545  0.5020568

 Al 
  0.4964618  0.2501299  0.7582125

 Al 
  0.7643632  0.9986152  0.7348151

 Al 
  0.7493515  0.2522066  0.5169744

 Al 
  0.4790939  0.5072311  0.4834724

 Al 
  0.5071779  0.7374239  0.7443283

 Al 
  0.7614116  0.4957341  0.7540679

 Al 
  0.7476400  0.7493874  0.4769207

