32 
charge = 0 
 Al 
  0.0058512  0.0126887  0.9957651

 Al 
  0.9870539  0.2448678  0.2450361

 Al 
  0.2514356  0.0071989  0.2399807

 Al 
  0.2567917  0.2577781  0.0050443

 Al 
  0.5101455  0.9959148  0.9995829

 Al 
  0.4961215  0.2643854  0.2490953

 Al 
  0.7344203  0.0120217  0.2447131

 Al 
  0.7492525  0.2392258  0.9965720

 Al 
  0.0177145  0.5140117  0.0232922

 Al 
  0.0011608  0.7639684  0.2599314

 Al 
  0.2578820  0.5043327  0.2474877

 Al 
  0.2412888  0.7392728  0.0030246

 Al 
  0.0050975  0.0146664  0.5015655

 Al 
  0.0036718  0.2456067  0.7615564

 Al 
  0.2575863  0.9717427  0.7431216

 Al 
  0.2649671  0.2176736  0.4954680

 Al 
  0.0097569  0.4839859  0.5007264

 Al 
  0.9930338  0.7598510  0.7499827

 Al 
  0.2449384  0.4935016  0.7568932

 Al 
  0.2409361  0.7554824  0.5118398

 Al 
  0.5070380  0.5173271  0.9919385

 Al 
  0.4836134  0.7443184  0.2427058

 Al 
  0.7291495  0.5064749  0.2470398

 Al 
  0.7481956  0.7568945  0.0072719

 Al 
  0.5006039  0.0056185  0.5051322

 Al 
  0.4963480  0.2466017  0.7599847

 Al 
  0.7630216  0.0014158  0.7379919

 Al 
  0.7500334  0.2483974  0.5121553

 Al 
  0.4809836  0.4984778  0.4886367

 Al 
  0.5044726  0.7377296  0.7452106

 Al 
  0.7601356  0.4931736  0.7544849

 Al 
  0.7472972  0.7453938  0.4767685

