32 
charge = 0 
 Al 
  0.0073610  0.0128558  0.9946785

 Al 
  0.9897035  0.2454878  0.2440671

 Al 
  0.2548958  0.0099030  0.2428939

 Al 
  0.2562361  0.2590392  0.0047597

 Al 
  0.5065715  0.9917578  0.9976721

 Al 
  0.4973219  0.2623422  0.2458331

 Al 
  0.7311222  0.0142555  0.2483293

 Al 
  0.7453418  0.2360267  0.9954223

 Al 
  0.0176934  0.5124623  0.0211141

 Al 
  0.9948715  0.7654262  0.2546334

 Al 
  0.2619907  0.5026558  0.2450807

 Al 
  0.2473826  0.7377122  0.0030258

 Al 
  0.0004282  0.0169781  0.5062522

 Al 
  0.0081778  0.2435139  0.7610254

 Al 
  0.2557856  0.9729791  0.7459507

 Al 
  0.2630018  0.2193443  0.4911019

 Al 
  0.0084315  0.4857309  0.4991523

 Al 
  0.9952304  0.7634139  0.7496819

 Al 
  0.2477773  0.4947008  0.7569006

 Al 
  0.2372420  0.7622370  0.5111467

 Al 
  0.5088424  0.5196079  0.9919682

 Al 
  0.4874610  0.7484085  0.2436464

 Al 
  0.7335144  0.5110304  0.2444013

 Al 
  0.7465125  0.7565145  0.0101121

 Al 
  0.4989419  0.0010816  0.5074031

 Al 
  0.4962910  0.2431798  0.7610069

 Al 
  0.7603287  0.0035431  0.7417690

 Al 
  0.7503156  0.2453022  0.5065801

 Al 
  0.4837050  0.4903198  0.4955299

 Al 
  0.5023031  0.7387345  0.7456153

 Al 
  0.7587347  0.4914225  0.7548339

 Al 
  0.7464828  0.7420326  0.4784120

