32 
charge = 0 
 Al 
  0.0069799  0.0129486  0.9948604

 Al 
  0.9890005  0.2452750  0.2442775

 Al 
  0.2540679  0.0093411  0.2422368

 Al 
  0.2563895  0.2588275  0.0048215

 Al 
  0.5075714  0.9927256  0.9981882

 Al 
  0.4969816  0.2629684  0.2466784

 Al 
  0.7318400  0.0137914  0.2473925

 Al 
  0.7462725  0.2366739  0.9956821

 Al 
  0.0179496  0.5129573  0.0217415

 Al 
  0.9963467  0.7650785  0.2559688

 Al 
  0.2611331  0.5031137  0.2455732

 Al 
  0.2458430  0.7378719  0.0030778

 Al 
  0.0015989  0.0165116  0.5051879

 Al 
  0.0070306  0.2439508  0.7612061

 Al 
  0.2562064  0.9724110  0.7450621

 Al 
  0.2636082  0.2186711  0.4920524

 Al 
  0.0087533  0.4852544  0.4995495

 Al 
  0.9947317  0.7626974  0.7497290

 Al 
  0.2470756  0.4943815  0.7569823

 Al 
  0.2380773  0.7607717  0.5115180

 Al 
  0.5084340  0.5192429  0.9919398

 Al 
  0.4864957  0.7472798  0.2433234

 Al 
  0.7323029  0.5100329  0.2450572

 Al 
  0.7468195  0.7565814  0.0094933

 Al 
  0.4992228  0.0023118  0.5069143

 Al 
  0.4963034  0.2440127  0.7608336

 Al 
  0.7611207  0.0030939  0.7407851

 Al 
  0.7502958  0.2459816  0.5079984

 Al 
  0.4829650  0.4922479  0.4937144

 Al 
  0.5027746  0.7384214  0.7455708

 Al 
  0.7590800  0.4917863  0.7547621

 Al 
  0.7467291  0.7427875  0.4778241

