32 
charge = 0 
 Al 
  0.0071704  0.0129127  0.9947614

 Al 
  0.9893495  0.2453777  0.2441698

 Al 
  0.2544862  0.0096319  0.2425721

 Al 
  0.2563140  0.2589426  0.0047906

 Al 
  0.5070801  0.9922355  0.9979320

 Al 
  0.4971487  0.2626640  0.2462576

 Al 
  0.7314725  0.0140315  0.2478590

 Al 
  0.7458022  0.2363373  0.9955497

 Al 
  0.0178407  0.5127172  0.0214346

 Al 
  0.9955992  0.7652530  0.2553017

 Al 
  0.2615749  0.5028872  0.2453171

 Al 
  0.2466128  0.7377741  0.0030555

 Al 
  0.0010136  0.0167554  0.5057299

 Al 
  0.0076023  0.2437243  0.7611195

 Al 
  0.2559923  0.9726734  0.7454916

 Al 
  0.2633137  0.2189879  0.4915648

 Al 
  0.0085912  0.4854896  0.4993515

 Al 
  0.9949866  0.7630699  0.7497017

 Al 
  0.2474271  0.4945399  0.7569489

 Al 
  0.2376516  0.7615229  0.5113497

 Al 
  0.5086407  0.5194421  0.9919521

 Al 
  0.4869784  0.7478367  0.2434768

 Al 
  0.7329006  0.5105440  0.2447292

 Al 
  0.7466561  0.7565455  0.0098114

 Al 
  0.4990718  0.0017029  0.5071655

 Al 
  0.4962972  0.2435944  0.7609264

 Al 
  0.7607346  0.0033266  0.7412739

 Al 
  0.7503106  0.2456326  0.5072892

 Al 
  0.4833300  0.4912739  0.4946166

 Al 
  0.5025333  0.7385723  0.7455980

 Al 
  0.7589067  0.4915982  0.7547993

 Al 
  0.7466091  0.7424026  0.4781026

