32 
charge = 0 
 Al 
  0.0065987  0.0129523  0.9951054

 Al 
  0.9883224  0.2450968  0.2445077

 Al 
  0.2532102  0.0086988  0.2415289

 Al 
  0.2565343  0.2585454  0.0048884

 Al 
  0.5085058  0.9937441  0.9986820

 Al 
  0.4966685  0.2635228  0.2475063

 Al 
  0.7326308  0.0132617  0.2464717

 Al 
  0.7472390  0.2374227  0.9959606

 Al 
  0.0180449  0.5133855  0.0223157

 Al 
  0.9978924  0.7647233  0.2573004

 Al 
  0.2601653  0.5035506  0.2461425

 Al 
  0.2443047  0.7381838  0.0030976

 Al 
  0.0027709  0.0159695  0.5040456

 Al 
  0.0058920  0.2444483  0.7613559

 Al 
  0.2566482  0.9720150  0.7442924

 Al 
  0.2641416  0.2181625  0.4931006

 Al 
  0.0090837  0.4848040  0.4999468

 Al 
  0.9941958  0.7618633  0.7497970

 Al 
  0.2463640  0.4940733  0.7570083

 Al 
  0.2389733  0.7591542  0.5117556

 Al 
  0.5079971  0.5187379  0.9919261

 Al 
  0.4855267  0.7462131  0.2430622

 Al 
  0.7311643  0.5089352  0.2457193

 Al 
  0.7472031  0.7566717  0.0088065

 Al 
  0.4995904  0.0034837  0.5063734

 Al 
  0.4963170  0.2448616  0.7606047

 Al 
  0.7618360  0.0025877  0.7398260

 Al 
  0.7502401  0.2467266  0.5094067

 Al 
  0.4822633  0.4942565  0.4919472

 Al 
  0.5032969  0.7381491  0.7454866

 Al 
  0.7594302  0.4921972  0.7546780

 Al 
  0.7469482  0.7436018  0.4773538

