32 
charge = 0 
 Al 
  0.0064106  0.0129202  0.9952502

 Al 
  0.9879944  0.2450225  0.2446302

 Al 
  0.2527734  0.0083498  0.2411564

 Al 
  0.2566024  0.2583783  0.0049243

 Al 
  0.5089451  0.9942701  0.9989184

 Al 
  0.4965224  0.2637716  0.2479135

 Al 
  0.7330528  0.0129734  0.2460200

 Al 
  0.7477340  0.2378360  0.9961079

 Al 
  0.0180288  0.5135723  0.0225806

 Al 
  0.9986894  0.7645414  0.2579637

 Al 
  0.2596381  0.5037597  0.2464544

 Al 
  0.2435412  0.7383979  0.0030939

 Al 
  0.0033563  0.0156700  0.5034478

 Al 
  0.0053289  0.2447193  0.7614178

 Al 
  0.2568759  0.9718813  0.7439520

 Al 
  0.2643792  0.2179731  0.4936600

 Al 
  0.0092508  0.4845886  0.5001436

 Al 
  0.9939149  0.7614029  0.7498379

 Al 
  0.2460064  0.4939248  0.7570009

 Al 
  0.2394424  0.7582892  0.5118249

 Al 
  0.5077682  0.5184347  0.9919237

 Al 
  0.4850441  0.7457069  0.2429533

 Al 
  0.7306247  0.5083511  0.2460497

 Al 
  0.7474234  0.7567237  0.0084414

 Al 
  0.4998082  0.0040468  0.5060839

 Al 
  0.4963244  0.2452911  0.7604685

 Al 
  0.7621640  0.0023142  0.7393557

 Al 
  0.7502005  0.2471227  0.5101047

 Al 
  0.4819266  0.4952874  0.4910883

 Al 
  0.5035741  0.7380278  0.7454309

 Al 
  0.7596072  0.4924212  0.7546334

 Al 
  0.7470459  0.7440300  0.4771633

