32 
charge = 0 
 Al 
  0.0081196  0.0124202  0.9945052

 Al 
  0.9911737  0.2460002  0.2437020

 Al 
  0.2564440  0.0107717  0.2440387

 Al 
  0.2559081  0.2592545  0.0046371

 Al 
  0.5043971  0.9899745  0.9965918

 Al 
  0.4980892  0.2609153  0.2441117

 Al 
  0.7299007  0.0149782  0.2502302

 Al 
  0.7436043  0.2350230  0.9949693

 Al 
  0.0167467  0.5113014  0.0196871

 Al 
  0.9921551  0.7661230  0.2519702

 Al 
  0.2634016  0.5017091  0.2443357

 Al 
  0.2504232  0.7378199  0.0028427

 Al 
  0.9981078  0.0176687  0.5081295

 Al 
  0.0104822  0.2428432  0.7605799

 Al 
  0.2550121  0.9746213  0.7480570

 Al 
  0.2615972  0.2211475  0.4894980

 Al 
  0.0078177  0.4867593  0.4983639

 Al 
  0.9960918  0.7644993  0.7496696

 Al 
  0.2491399  0.4953653  0.7565739

 Al 
  0.2357482  0.7647146  0.5100032

 Al 
  0.5095824  0.5199173  0.9920709

 Al 
  0.4893607  0.7508131  0.2444941

 Al 
  0.7361257  0.5127011  0.2431154

 Al 
  0.7461339  0.7564737  0.0111220

 Al 
  0.4986189  0.9984902  0.5082360

 Al 
  0.4962588  0.2415623  0.7611839

 Al 
  0.7585268  0.0042646  0.7438010

 Al 
  0.7502314  0.2441562  0.5037436

 Al 
  0.4852940  0.4866999  0.4992599

 Al 
  0.5015148  0.7394795  0.7455930

 Al 
  0.7580763  0.4908247  0.7549416

 Al 
  0.7459148  0.7407059  0.4799428

