32 
charge = 0 
 Al 
  0.0093807  0.0109302  0.9948282

 Al 
  0.9939223  0.2470682  0.2432157

 Al 
  0.2587694  0.0114722  0.2454953

 Al 
  0.2553017  0.2589847  0.0043612

 Al 
  0.5001411  0.9873509  0.9946265

 Al 
  0.4996993  0.2579922  0.2410673

 Al 
  0.7284726  0.0155413  0.2535481

 Al 
  0.7410314  0.2341258  0.9944013

 Al 
  0.0139362  0.5088696  0.0166143

 Al 
  0.9881974  0.7674472  0.2473900

 Al 
  0.2650500  0.5000656  0.2438085

 Al 
  0.2554465  0.7391849  0.0023600

 Al 
  0.9941389  0.0180672  0.5105477

 Al 
  0.0144622  0.2423494  0.7595664

 Al 
  0.2538785  0.9790072  0.7526410

 Al 
  0.2586382  0.2255767  0.4876194

 Al 
  0.0068487  0.4888075  0.4970360

 Al 
  0.9971313  0.7653309  0.7499455

 Al 
  0.2513366  0.4965905  0.7555270

 Al 
  0.2336456  0.7677429  0.5067967

 Al 
  0.5106666  0.5191389  0.9924261

 Al 
  0.4925288  0.7553054  0.2466413

 Al 
  0.7411465  0.5145488  0.2410042

 Al 
  0.7461450  0.7568091  0.0120229

 Al 
  0.4986597  0.9937169  0.5092817

 Al 
  0.4961512  0.2388644  0.7609698

 Al 
  0.7547423  0.0049626  0.7475472

 Al 
  0.7496485  0.2428630  0.4988713

 Al 
  0.4884498  0.4810715  0.5058772

 Al 
  0.5006312  0.7411477  0.7452230

 Al 
  0.7570640  0.4901156  0.7550121

 Al 
  0.7447366  0.7389510  0.4837298

