32 
charge = 0 
 Al 
  0.0097050  0.0103584  0.9950634

 Al 
  0.9947391  0.2473937  0.2431093

 Al 
  0.2593362  0.0114833  0.2457910

 Al 
  0.2551322  0.2587669  0.0042523

 Al 
  0.4988540  0.9867222  0.9940733

 Al 
  0.5002153  0.2570912  0.2402109

 Al 
  0.7282375  0.0155277  0.2544639

 Al 
  0.7404163  0.2340503  0.9942948

 Al 
  0.0129214  0.5081110  0.0155920

 Al 
  0.9872618  0.7678642  0.2461178

 Al 
  0.2653631  0.4996238  0.2438332

 Al 
  0.2567744  0.7397988  0.0022041

 Al 
  0.9930325  0.0179830  0.5110292

 Al 
  0.0155636  0.2423704  0.7592285

 Al 
  0.2536025  0.9805765  0.7541038

 Al 
  0.2577026  0.2270927  0.4872890

 Al 
  0.0065974  0.4894547  0.4966747

 Al 
  0.9973170  0.7653322  0.7501002

 Al 
  0.2519120  0.4969531  0.7551334

 Al 
  0.2331543  0.7683432  0.5056321

 Al 
  0.5109339  0.5186216  0.9925746

 Al 
  0.4933877  0.7566098  0.2473999

 Al 
  0.7426551  0.5148210  0.2404473

 Al 
  0.7462786  0.7570182  0.0120539

 Al 
  0.4987723  0.9923444  0.5094971

 Al 
  0.4961017  0.2381244  0.7607903

 Al 
  0.7535382  0.0050332  0.7486548

 Al 
  0.7493726  0.2426662  0.4975249

 Al 
  0.4894436  0.4796136  0.5077422

 Al 
  0.5004901  0.7416972  0.7450535

 Al 
  0.7568140  0.4899757  0.7550072

 Al 
  0.7443753  0.7385736  0.4850577

