32 
charge = 0 
 Al 
  0.0095453  0.0106517  0.9949384

 Al 
  0.9943295  0.2472303  0.2431600

 Al 
  0.2590590  0.0114883  0.2456487

 Al 
  0.2552163  0.2588832  0.0043092

 Al 
  0.4995000  0.9870291  0.9943493

 Al 
  0.4999542  0.2575442  0.2406378

 Al 
  0.7283451  0.0155450  0.2540085

 Al 
  0.7407170  0.2340788  0.9943443

 Al 
  0.0134387  0.5084934  0.0161118

 Al 
  0.9877184  0.7676526  0.2467514

 Al 
  0.2652146  0.4998428  0.2438109

 Al 
  0.2561173  0.7394820  0.0022821

 Al 
  0.9935845  0.0180362  0.5108002

 Al 
  0.0150166  0.2423506  0.7594005

 Al 
  0.2537374  0.9797758  0.7533662

 Al 
  0.2581741  0.2263230  0.4874437

 Al 
  0.0067212  0.4891280  0.4968541

 Al 
  0.9972303  0.7653445  0.7500186

 Al 
  0.2516274  0.4967712  0.7553351

 Al 
  0.2333944  0.7680573  0.5062274

 Al 
  0.5108027  0.5188963  0.9924979

 Al 
  0.4929607  0.7559589  0.2470138

 Al 
  0.7418977  0.5146985  0.2407232

 Al 
  0.7462056  0.7569068  0.0120514

 Al 
  0.4987117  0.9930300  0.5093931

 Al 
  0.4961277  0.2384931  0.7608868

 Al 
  0.7541458  0.0050047  0.7480991

 Al 
  0.7495161  0.2427553  0.4981944

 Al 
  0.4889424  0.4803339  0.5068128

 Al 
  0.5005544  0.7414187  0.7451401

 Al 
  0.7569365  0.4900426  0.7550109

 Al 
  0.7445572  0.7387555  0.4843807

