32 
charge = 0 
 Al 
  0.0106071  0.0079848  0.9963517

 Al 
  0.9976325  0.2485397  0.2428308

 Al 
  0.2609376  0.0109252  0.2464705

 Al 
  0.2546037  0.2575924  0.0037461

 Al 
  0.4943307  0.9849834  0.9923246

 Al 
  0.5021274  0.2538624  0.2373620

 Al 
  0.7280692  0.0148260  0.2573746

 Al 
  0.7387506  0.2343374  0.9941389

 Al 
  0.0088869  0.5053685  0.0115081

 Al 
  0.9847136  0.7694656  0.2419138

 Al 
  0.2660351  0.4982761  0.2444669

 Al 
  0.2608831  0.7424620  0.0016868

 Al 
  0.9893050  0.0169818  0.5120044

 Al 
  0.0191364  0.2429954  0.7579105

 Al 
  0.2527746  0.9869177  0.7593869

 Al 
  0.2542523  0.2330380  0.4868026

 Al 
  0.0057980  0.4919410  0.4955027

 Al 
  0.9976140  0.7645673  0.7508997

 Al 
  0.2537152  0.4982538  0.7535184

 Al 
  0.2317979  0.7696847  0.5009170

 Al 
  0.5117172  0.5158878  0.9932503

 Al 
  0.4961970  0.7610081  0.2504393

 Al 
  0.7480298  0.5149052  0.2387431

 Al 
  0.7470497  0.7581605  0.0113014

 Al 
  0.4993206  0.9877692  0.5100193

 Al 
  0.4958641  0.2357123  0.7597879

 Al 
  0.7490570  0.0048748  0.7525865

 Al 
  0.7480224  0.2425907  0.4931192

 Al 
  0.4932305  0.4750433  0.5139758

 Al 
  0.5003255  0.7437652  0.7443221

 Al 
  0.7560876  0.4896527  0.7549193

 Al 
  0.7431291  0.7376256  0.4904188

