32 
charge = 0 
 Al 
  0.0101443  0.0094030  0.9955312

 Al 
  0.9959779  0.2478862  0.2429731

 Al 
  0.2600973  0.0113534  0.2461462

 Al 
  0.2548884  0.2583350  0.0040604

 Al 
  0.4969024  0.9858844  0.9932763

 Al 
  0.5010198  0.2557114  0.2389535

 Al 
  0.7280382  0.0153532  0.2557782

 Al 
  0.7396057  0.2340726  0.9941859

 Al 
  0.0112692  0.5069452  0.0139374

 Al 
  0.9860279  0.7685263  0.2442602

 Al 
  0.2657245  0.4990025  0.2440052

 Al 
  0.2586481  0.7408594  0.0019714

 Al 
  0.9914027  0.0176885  0.5115799

 Al 
  0.0171600  0.2425350  0.7586889

 Al 
  0.2532251  0.9831531  0.7563611

 Al 
  0.2562485  0.2295369  0.4869573

 Al 
  0.0062410  0.4904794  0.4961524

 Al 
  0.9975088  0.7651465  0.7503948

 Al 
  0.2527251  0.4975038  0.7544800

 Al 
  0.2325046  0.7690535  0.5037176

 Al 
  0.5112977  0.5176179  0.9928345

 Al 
  0.4946327  0.7585429  0.2486412

 Al 
  0.7449520  0.5150191  0.2396651

 Al 
  0.7465633  0.7574303  0.0118979

 Al 
  0.4989889  0.9903247  0.5097619

 Al 
  0.4960101  0.2370514  0.7604302

 Al 
  0.7516546  0.0050406  0.7503366

 Al 
  0.7488664  0.2425165  0.4955671

 Al 
  0.4910103  0.4775519  0.5104834

 Al 
  0.5003601  0.7425660  0.7447602

 Al 
  0.7564737  0.4898087  0.7549812

 Al 
  0.7438308  0.7381008  0.4872296

