32 
charge = 0 
 Al 
  0.0105069  0.0083511  0.9961264

 Al 
  0.9972204  0.2483776  0.2428630

 Al 
  0.2607470  0.0110576  0.2464036

 Al 
  0.2546693  0.2577942  0.0038303

 Al 
  0.4949656  0.9851839  0.9925474

 Al 
  0.5018502  0.2543228  0.2377481

 Al 
  0.7280283  0.0149894  0.2569959

 Al 
  0.7389387  0.2342471  0.9941401

 Al 
  0.0094971  0.5057621  0.0121380

 Al 
  0.9850057  0.7692268  0.2424830

 Al 
  0.2659732  0.4984444  0.2443295

 Al 
  0.2603547  0.7420462  0.0017536

 Al 
  0.9898198  0.0171922  0.5119301

 Al 
  0.0186624  0.2428556  0.7581110

 Al 
  0.2528835  0.9859475  0.7586369

 Al 
  0.2547547  0.2321420  0.4868125

 Al 
  0.0059056  0.4915660  0.4956599

 Al 
  0.9976028  0.7647468  0.7507623

 Al 
  0.2534776  0.4980645  0.7537659

 Al 
  0.2319576  0.7695584  0.5016385

 Al 
  0.5116207  0.5163593  0.9931402

 Al 
  0.4958170  0.7604091  0.2499777

 Al 
  0.7472613  0.5149733  0.2389597

 Al 
  0.7469197  0.7579600  0.0114920

 Al 
  0.4992364  0.9883880  0.5099636

 Al 
  0.4959024  0.2360353  0.7599649

 Al 
  0.7497116  0.0049342  0.7520259

 Al 
  0.7482501  0.2425437  0.4937107

 Al 
  0.4926625  0.4756435  0.5131244

 Al 
  0.5003205  0.7434632  0.7444347

 Al 
  0.7561767  0.4896849  0.7549379

 Al 
  0.7432998  0.7377296  0.4895946

