32 
charge = 0 
 Al 
  0.0108027  0.0033909  0.9997451

 Al 
  0.0022920  0.2503725  0.2425697

 Al 
  0.2621108  0.0083832  0.2467588

 Al 
  0.2542127  0.2547547  0.0025432

 Al 
  0.4878360  0.9840070  0.9908854

 Al 
  0.5052040  0.2487686  0.2335342

 Al 
  0.7303017  0.0112519  0.2605416

 Al 
  0.7379771  0.2364920  0.9947032

 Al 
  0.0013663  0.5008081  0.0028588

 Al 
  0.9831543  0.7723788  0.2363014

 Al 
  0.2661910  0.4970187  0.2469927

 Al 
  0.2653124  0.7475434  0.0012338

 Al 
  0.9837186  0.0129189  0.5115254

 Al 
  0.0233021  0.2457873  0.7552869

 Al 
  0.2514603  0.9991882  0.7671044

 Al 
  0.2483342  0.2441797  0.4879585

 Al 
  0.0045567  0.4969395  0.4939112

 Al 
  0.9971957  0.7609240  0.7530481

 Al 
  0.2560665  0.5006448  0.7504678

 Al 
  0.2307349  0.7698765  0.4917937

 Al 
  0.5124301  0.5086295  0.9948319

 Al 
  0.5001720  0.7666749  0.2560616

 Al 
  0.7567596  0.5122853  0.2370699

 Al 
  0.7486226  0.7612358  0.0069724

 Al 
  0.5000631  0.9820021  0.5103423

 Al 
  0.4953591  0.2327100  0.7570294

 Al 
  0.7415264  0.0033810  0.7589389

 Al 
  0.7446376  0.2445201  0.4873905

 Al 
  0.5005309  0.4694273  0.5226214

 Al 
  0.5007648  0.7470274  0.7431365

 Al 
  0.7553933  0.4895154  0.7546941

 Al 
  0.7416081  0.7369610  0.5011447

