32 
charge = 0 
 Al 
  0.0108943  0.0064663  0.9973603

 Al 
  0.9992562  0.2491770  0.2427219

 Al 
  0.2615613  0.0102507  0.2466549

 Al 
  0.2543847  0.2567076  0.0033761

 Al 
  0.4918977  0.9843510  0.9915672

 Al 
  0.5032263  0.2520568  0.2359042

 Al 
  0.7284503  0.0139597  0.2587298

 Al 
  0.7381776  0.2348423  0.9942107

 Al 
  0.0063908  0.5038055  0.0088411

 Al 
  0.9837916  0.7704445  0.2397703

 Al 
  0.2661898  0.4976919  0.2451512

 Al 
  0.2627642  0.7441773  0.0014578

 Al 
  0.9873150  0.0159336  0.5121071

 Al 
  0.0208678  0.2437095  0.7570801

 Al 
  0.2523576  0.9909324  0.7622766

 Al 
  0.2522388  0.2367111  0.4869450

 Al 
  0.0053822  0.4935090  0.4949099

 Al 
  0.9975744  0.7636417  0.7515210

 Al 
  0.2545963  0.4990236  0.7525011

 Al 
  0.2312744  0.7700040  0.4979357

 Al 
  0.5120526  0.5137741  0.9937317

 Al 
  0.4976400  0.7632469  0.2523266

 Al 
  0.7510618  0.5143867  0.2379882

 Al 
  0.7475954  0.7590676  0.0102668

 Al 
  0.4996461  0.9854723  0.5101876

 Al 
  0.4956982  0.2345169  0.7589835

 Al 
  0.7464445  0.0045282  0.7547993

 Al 
  0.7470076  0.2429657  0.4909138

 Al 
  0.4955770  0.4728343  0.5172058

 Al 
  0.5004109  0.7449495  0.7438741

 Al 
  0.7557794  0.4895612  0.7548426

 Al 
  0.7424967  0.7373014  0.4938543

