32 
charge = 0 
 Al 
  0.0107222  0.0030172  0.0000631

 Al 
  0.0026471  0.2505148  0.2425548

 Al 
  0.2621095  0.0081172  0.2467601

 Al 
  0.2542176  0.2545134  0.0024355

 Al 
  0.4874276  0.9840565  0.9908928

 Al 
  0.5054193  0.2483974  0.2332966

 Al 
  0.7306396  0.0108262  0.2606777

 Al 
  0.7380464  0.2367544  0.9947960

 Al 
  0.0007512  0.5004443  0.0020519

 Al 
  0.9831877  0.7726078  0.2359549

 Al 
  0.2661725  0.4969828  0.2472551

 Al 
  0.2655091  0.7479357  0.0012277

 Al 
  0.9833053  0.0124635  0.5113918

 Al 
  0.0234914  0.2461029  0.7550493

 Al 
  0.2513279  0.0002116  0.7675882

 Al 
  0.2478640  0.2451067  0.4881442

 Al 
  0.0044478  0.4973974  0.4938035

 Al 
  0.9971313  0.7605168  0.7532622

 Al 
  0.2562274  0.5008576  0.7502228

 Al 
  0.2307114  0.7697985  0.4910277

 Al 
  0.5124486  0.5079105  0.9949792

 Al 
  0.5004616  0.7669831  0.2565096

 Al 
  0.7574266  0.5119326  0.2370155

 Al 
  0.7487303  0.7615267  0.0064539

 Al 
  0.5000804  0.9816927  0.5103497

 Al 
  0.4953195  0.2325479  0.7567608

 Al 
  0.7409608  0.0031979  0.7594216

 Al 
  0.7443245  0.2447812  0.4870353

 Al 
  0.5011683  0.4691043  0.5231882

 Al 
  0.5008106  0.7472464  0.7430721

 Al 
  0.7553661  0.4895191  0.7546780

 Al 
  0.7415425  0.7369388  0.5020803

