32 
charge = 0 
 Al 
  0.0109599  0.0056928  0.9979197

 Al 
  0.0000458  0.2494864  0.2426773

 Al 
  0.2617878  0.0098386  0.2467056

 Al 
  0.2543067  0.2562299  0.0031756

 Al 
  0.4907653  0.9841456  0.9912826

 Al 
  0.5037560  0.2511868  0.2352384

 Al 
  0.7287758  0.0134016  0.2593003

 Al 
  0.7380055  0.2351790  0.9942899

 Al 
  0.0051260  0.5030395  0.0074254

 Al 
  0.9834810  0.7709383  0.2387939

 Al 
  0.2662220  0.4974605  0.2455609

 Al 
  0.2635587  0.7450423  0.0013712

 Al 
  0.9863670  0.0152888  0.5120514

 Al 
  0.0216165  0.2441525  0.7566482

 Al 
  0.2521496  0.9929892  0.7636243

 Al 
  0.2512413  0.2385773  0.4871145

 Al 
  0.0051792  0.4943295  0.4946376

 Al 
  0.9975100  0.7630625  0.7518712

 Al 
  0.2549985  0.4994171  0.7519851

 Al 
  0.2310789  0.7700609  0.4964086

 Al 
  0.5121850  0.5125934  0.9939916

 Al 
  0.4983157  0.7642505  0.2532771

 Al 
  0.7525407  0.5139882  0.2376813

 Al 
  0.7478714  0.7595738  0.0095911

 Al 
  0.4997884  0.9844500  0.5102458

 Al 
  0.4956116  0.2339859  0.7585318

 Al 
  0.7451611  0.0042956  0.7558759

 Al 
  0.7464482  0.2432590  0.4899176

 Al 
  0.4967873  0.4718516  0.5186996

 Al 
  0.5004864  0.7455163  0.7436612

 Al 
  0.7556557  0.4895352  0.7548030

 Al 
  0.7422207  0.7371838  0.4956376

