32 
charge = 0 
 Al 
  0.0109165  0.0041483  0.9991189

 Al 
  0.0015643  0.2500842  0.2426019

 Al 
  0.2620650  0.0088981  0.2467526

 Al 
  0.2542201  0.2552448  0.0027573

 Al 
  0.4887258  0.9839711  0.9909361

 Al 
  0.5047485  0.2495396  0.2340503

 Al 
  0.7297003  0.0120464  0.2602074

 Al 
  0.7379028  0.2360044  0.9945374

 Al 
  0.0026075  0.5015420  0.0044342

 Al 
  0.9831630  0.7719098  0.2370551

 Al 
  0.2662183  0.4971227  0.2464866

 Al 
  0.2648359  0.7467341  0.0012598

 Al 
  0.9845688  0.0137790  0.5117556

 Al 
  0.0228405  0.2451933  0.7557522

 Al 
  0.2517066  0.9971289  0.7660499

 Al 
  0.2492859  0.2423184  0.4876256

 Al 
  0.0047696  0.4960448  0.4941389

 Al 
  0.9973157  0.7616987  0.7526360

 Al 
  0.2557312  0.5002265  0.7509653

 Al 
  0.2308104  0.7699928  0.4933308

 Al 
  0.5123744  0.5100181  0.9945423

 Al 
  0.4995780  0.7659732  0.2551507

 Al 
  0.7553933  0.5129338  0.2372209

 Al 
  0.7483899  0.7606628  0.0079402

 Al 
  0.5000012  0.9827088  0.5103213

 Al 
  0.4954408  0.2330800  0.7575516

 Al 
  0.7426947  0.0037201  0.7579489

 Al 
  0.7452564  0.2440399  0.4881553

 Al 
  0.4992674  0.4701450  0.5214123

 Al 
  0.5006695  0.7465596  0.7432875

 Al 
  0.7554626  0.4895141  0.7547275

 Al 
  0.7417727  0.7370180  0.4992884

