32 
charge = 0 
 Al 
  0.0108670  0.0037684  0.9994307

 Al 
  0.0019306  0.2502289  0.2425858

 Al 
  0.2620959  0.0086431  0.2467563

 Al 
  0.2542139  0.2549985  0.0026496

 Al 
  0.4882691  0.9839785  0.9909002

 Al 
  0.5049800  0.2491498  0.2337855

 Al 
  0.7299886  0.0116578  0.2603844

 Al 
  0.7379301  0.2362420  0.9946166

 Al 
  0.0019851  0.5011732  0.0036533

 Al 
  0.9831456  0.7721462  0.2366677

 Al 
  0.2662071  0.4970657  0.2467365

 Al 
  0.2650884  0.7471425  0.0012438

 Al 
  0.9841406  0.0133570  0.5116467

 Al 
  0.0230843  0.2454841  0.7555220

 Al 
  0.2515866  0.9981610  0.7665920

 Al 
  0.2488082  0.2432503  0.4877853

 Al 
  0.0046644  0.4964890  0.4940238

 Al 
  0.9972563  0.7613187  0.7528402

 Al 
  0.2559019  0.5004344  0.7507153

 Al 
  0.2307683  0.7699421  0.4925622

 Al 
  0.5124053  0.5093325  0.9946859

 Al 
  0.4998775  0.7663383  0.2556099

 Al 
  0.7560814  0.5126194  0.2371393

 Al 
  0.7485087  0.7609475  0.0074687

 Al 
  0.5000359  0.9823412  0.5103336

 Al 
  0.4954000  0.2328870  0.7572917

 Al 
  0.7421044  0.0035543  0.7584476

 Al 
  0.7449483  0.2442726  0.4877630

 Al 
  0.4998973  0.4697750  0.5220299

 Al 
  0.5007165  0.7467984  0.7432095

 Al 
  0.7554267  0.4895141  0.7547102

 Al 
  0.7416861  0.7369883  0.5002141

