32 
charge = 0 
 Al 
  0.0102334  0.0015655  0.0013489

 Al 
  0.0040196  0.2510680  0.2425066

 Al 
  0.2619388  0.0070096  0.2467675

 Al 
  0.2542956  0.2535951  0.0020110

 Al 
  0.4860527  0.9844723  0.9911527

 Al 
  0.5062014  0.2470051  0.2324897

 Al 
  0.7322397  0.0089377  0.2610242

 Al 
  0.7385464  0.2379313  0.9952391

 Al 
  0.9983429  0.4989988  0.9986783

 Al 
  0.9835726  0.7734667  0.2347805

 Al 
  0.2660722  0.4969469  0.2483528

 Al 
  0.2660165  0.7494047  0.0012512

 Al 
  0.9817212  0.0104760  0.5107408

 Al 
  0.0239629  0.2474865  0.7540518

 Al 
  0.2507178  0.0042411  0.7692057

 Al 
  0.2460311  0.2487860  0.4890043

 Al 
  0.0039751  0.4993020  0.4934001

 Al 
  0.9968677  0.7587520  0.7541570

 Al 
  0.2568264  0.5017437  0.7492723

 Al 
  0.2307089  0.7693580  0.4879820

 Al 
  0.5124548  0.5048636  0.9955955

 Al 
  0.5015791  0.7679051  0.2582335

 Al 
  0.7599847  0.5103299  0.2369363

 Al 
  0.7490916  0.7627110  0.0041582

 Al 
  0.5000569  0.9807609  0.5103572

 Al 
  0.4951735  0.2320529  0.7556519

 Al 
  0.7388372  0.0023835  0.7612655

 Al 
  0.7430734  0.2459581  0.4857965

 Al 
  0.5037511  0.4680548  0.5251943

 Al 
  0.5009616  0.7480125  0.7429026

 Al 
  0.7552931  0.4895364  0.7546223

 Al 
  0.7413977  0.7368818  0.5058660

