32 
charge = 0 
 Al 
  0.0089649  0.9995656  0.0032486

 Al 
  0.0059465  0.2518625  0.2424670

 Al 
  0.2611343  0.0052819  0.2468479

 Al 
  0.2545555  0.2524578  0.0014133

 Al 
  0.4848485  0.9857804  0.9922850

 Al 
  0.5071135  0.2451921  0.2317559

 Al 
  0.7354450  0.0055653  0.2609500

 Al 
  0.7400104  0.2400710  0.9961240

 Al 
  0.9949099  0.4968244  0.9931600

 Al 
  0.9849178  0.7744938  0.2336778

 Al 
  0.2658680  0.4972415  0.2500978

 Al 
  0.2659039  0.7512524  0.0014022

 Al 
  0.9795097  0.0069997  0.5094500

 Al 
  0.0237067  0.2499629  0.7523637

 Al 
  0.2494740  0.0100280  0.7705968

 Al 
  0.2434075  0.2542263  0.4906626

 Al 
  0.0031125  0.5024145  0.4928865

 Al 
  0.9965150  0.7557448  0.7556210

 Al 
  0.2575999  0.5031979  0.7479469

 Al 
  0.2309836  0.7683048  0.4834810

 Al 
  0.5122543  0.4997661  0.9966264

 Al 
  0.5032115  0.7682528  0.2605972

 Al 
  0.7634882  0.5073672  0.2372469

 Al 
  0.7493812  0.7644597  0.0000829

 Al 
  0.4997129  0.9803537  0.5103188

 Al 
  0.4950139  0.2317942  0.7538909

 Al 
  0.7361170  0.0009121  0.7637543

 Al 
  0.7413123  0.2480521  0.4844414

 Al 
  0.5077075  0.4673048  0.5273551

 Al 
  0.5010024  0.7488206  0.7429867

 Al 
  0.7552992  0.4895550  0.7545579

 Al 
  0.7415734  0.7368942  0.5116987

