32 
charge = 0 
 Al 
  0.0106245  0.0026471  0.0003836

 Al 
  0.0029986  0.2506547  0.2425412

 Al 
  0.2620922  0.0078461  0.2467601

 Al 
  0.2542288  0.2542758  0.0023279

 Al 
  0.4870452  0.9841270  0.9909225

 Al 
  0.5056272  0.2480348  0.2330726

 Al 
  0.7310009  0.0103819  0.2607940

 Al 
  0.7381380  0.2370303  0.9948963

 Al 
  0.0001411  0.5000817  0.0012301

 Al 
  0.9832459  0.7728306  0.2356294

 Al 
  0.2661514  0.4969581  0.2475224

 Al 
  0.2656787  0.7483182  0.0012277

 Al 
  0.9828994  0.0119920  0.5112457

 Al 
  0.0236535  0.2464296  0.7548067

 Al 
  0.2511881  0.0012289  0.7680399

 Al 
  0.2473986  0.2460311  0.4883409

 Al 
  0.0043352  0.4978627  0.4936983

 Al 
  0.9970670  0.7600948  0.7534788

 Al 
  0.2563833  0.5010742  0.7499802

 Al 
  0.2306977  0.7697069  0.4902629

 Al 
  0.5124598  0.5071741  0.9951290

 Al 
  0.5007463  0.7672603  0.2569502

 Al 
  0.7580825  0.5115601  0.2369747

 Al 
  0.7488317  0.7618200  0.0059131

 Al 
  0.5000891  0.9814130  0.5103547

 Al 
  0.4952812  0.2324006  0.7564898

 Al 
  0.7404089  0.0030073  0.7598955

 Al 
  0.7440102  0.2450572  0.4866987

 Al 
  0.5018093  0.4688048  0.5237303

 Al 
  0.5008539  0.7474543  0.7430164

 Al 
  0.7553413  0.4895228  0.7546631

 Al 
  0.7414893  0.7369202  0.5030197

