32 
charge = 0 
 Al 
  0.0100676  0.0012153  0.0016707

 Al 
  0.0043513  0.2512029  0.2424967

 Al 
  0.2618521  0.0067249  0.2467724

 Al 
  0.2543278  0.2533823  0.0019058

 Al 
  0.4857779  0.9846319  0.9912777

 Al 
  0.5063747  0.2466809  0.2323264

 Al 
  0.7327051  0.0084191  0.2610613

 Al 
  0.7387283  0.2382568  0.9953678

 Al 
  0.9977551  0.4986387  0.9977971

 Al 
  0.9837322  0.7736634  0.2345416

 Al 
  0.2660413  0.4969667  0.2486374

 Al 
  0.2660722  0.7497451  0.0012673

 Al 
  0.9813400  0.0099376  0.5105502

 Al 
  0.0240038  0.2478652  0.7537894

 Al 
  0.2505408  0.0052299  0.7695275

 Al 
  0.2455831  0.2496993  0.4892493

 Al 
  0.0038463  0.4997983  0.4933073

 Al 
  0.9968034  0.7582793  0.7543909

 Al 
  0.2569650  0.5019739  0.7490421

 Al 
  0.2307324  0.7692156  0.4872259

 Al 
  0.5124387  0.5040580  0.9957576

 Al 
  0.5018526  0.7680536  0.2586481

 Al 
  0.7605972  0.5098819  0.2369524

 Al 
  0.7491634  0.7630080  0.0035295

 Al 
  0.5000260  0.9806074  0.5103547

 Al 
  0.4951401  0.2319687  0.7553661

 Al 
  0.7383434  0.0021583  0.7617049

 Al 
  0.7427664  0.2462824  0.4855304

 Al 
  0.5044045  0.4678580  0.5256274

 Al 
  0.5009876  0.7481758  0.7428853

 Al 
  0.7552844  0.4895426  0.7546112

 Al 
  0.7413940  0.7368744  0.5068252

