32 
charge = 0 
 Al 
  0.0086865  0.9992599  0.0035518

 Al 
  0.0062546  0.2519912  0.2424657

 Al 
  0.2609314  0.0049936  0.2468764

 Al 
  0.2546112  0.2523081  0.0013230

 Al 
  0.4847569  0.9860811  0.9925660

 Al 
  0.5072348  0.2449198  0.2316952

 Al 
  0.7360787  0.0049441  0.2608683

 Al 
  0.7403445  0.2404695  0.9962985

 Al 
  0.9943629  0.4964581  0.9921873

 Al 
  0.9852334  0.7746201  0.2335738

 Al 
  0.2658309  0.4973355  0.2503935

 Al 
  0.2657789  0.7515111  0.0014393

 Al 
  0.9791557  0.0063635  0.5092025

 Al 
  0.0235384  0.2504245  0.7520519

 Al 
  0.2492179  0.0109537  0.7706958

 Al 
  0.2429843  0.2551223  0.4909831

 Al 
  0.0029442  0.5029664  0.4928135

 Al 
  0.9964705  0.7552052  0.7558772

 Al 
  0.2577137  0.5034590  0.7477390

 Al 
  0.2310628  0.7680808  0.4827422

 Al 
  0.5121962  0.4988565  0.9968158

 Al 
  0.5034862  0.7681748  0.2609611

 Al 
  0.7640315  0.5068115  0.2373496

 Al 
  0.7493948  0.7647344  0.9993367

 Al 
  0.4996176  0.9804119  0.5103077

 Al 
  0.4949990  0.2318103  0.7535877

 Al 
  0.7357247  0.0006411  0.7641305

 Al 
  0.7410475  0.2484283  0.4842718

 Al 
  0.5083721  0.4672887  0.5276075

 Al 
  0.5009752  0.7489134  0.7430511

 Al 
  0.7553129  0.4895537  0.7545493

 Al 
  0.7416514  0.7369103  0.5126875

