32 
charge = 0 
 Al 
  0.0069873  0.9978999  0.0049515

 Al 
  0.0077323  0.2526088  0.2424793

 Al 
  0.2595973  0.0036087  0.2470967

 Al 
  0.2549106  0.2517846  0.0009282

 Al 
  0.4847953  0.9879338  0.9943778

 Al 
  0.5077051  0.2436612  0.2316989

 Al 
  0.7396664  0.0016200  0.2601653

 Al 
  0.7424385  0.2426043  0.9972786

 Al 
  0.9917776  0.4946117  0.9871467

 Al 
  0.9871974  0.7749629  0.2334055

 Al 
  0.2656391  0.4980075  0.2518502

 Al 
  0.2646973  0.7525605  0.0016559

 Al 
  0.9774442  0.0029615  0.5078585

 Al 
  0.0220843  0.2529454  0.7503242

 Al 
  0.2477043  0.0153322  0.7705745

 Al 
  0.2409435  0.2595317  0.4927887

 Al 
  0.0019789  0.5058710  0.4925140

 Al 
  0.9963467  0.7523885  0.7571915

 Al 
  0.2582187  0.5048574  0.7467563

 Al 
  0.2316049  0.7667380  0.4791421

 Al 
  0.5117903  0.4940919  0.9978405

 Al 
  0.5049119  0.7671328  0.2626108

 Al 
  0.7665474  0.5038080  0.2380649

 Al 
  0.7492958  0.7659472  0.9954062

 Al 
  0.4989802  0.9812856  0.5102272

 Al 
  0.4949953  0.2321383  0.7520494

 Al 
  0.7340651  0.9992352  0.7658024

 Al 
  0.7399498  0.2503453  0.4836592

 Al 
  0.5116665  0.4677689  0.5283439

 Al 
  0.5006312  0.7491882  0.7436290

 Al 
  0.7554242  0.4894993  0.7545072

 Al 
  0.7422751  0.7370699  0.5176736

