32 
charge = 0 
 Al 
  0.0080677  0.9986783  0.0041396

 Al 
  0.0068573  0.2522437  0.2424657

 Al 
  0.2604611  0.0044268  0.2469469

 Al 
  0.2547287  0.2520506  0.0011522

 Al 
  0.4846728  0.9867531  0.9932095

 Al 
  0.5074501  0.2443951  0.2316321

 Al 
  0.7374313  0.0036545  0.2606455

 Al 
  0.7410970  0.2412975  0.9966685

 Al 
  0.9932949  0.4957217  0.9902022

 Al 
  0.9859425  0.7748206  0.2334352

 Al 
  0.2657542  0.4975620  0.2509839

 Al 
  0.2654386  0.7519813  0.0015197

 Al 
  0.9784590  0.0050443  0.5086840

 Al 
  0.0230818  0.2513923  0.7513947

 Al 
  0.2486610  0.0127580  0.7707737

 Al 
  0.2421514  0.2569044  0.4916663

 Al 
  0.0025828  0.5040988  0.4926798

 Al 
  0.9963975  0.7541000  0.7563982

 Al 
  0.2579303  0.5039986  0.7473331

 Al 
  0.2312497  0.7675882  0.4812806

 Al 
  0.5120576  0.4969902  0.9972093

 Al 
  0.5040456  0.7678914  0.2616566

 Al 
  0.7650785  0.5056519  0.2375959

 Al 
  0.7493899  0.7652579  0.9977996

 Al 
  0.4993948  0.9806420  0.5102804

 Al 
  0.4949817  0.2318907  0.7529763

 Al 
  0.7349970  0.0000866  0.7648458

 Al 
  0.7405574  0.2491943  0.4839785

 Al 
  0.5097000  0.4673655  0.5280098

 Al 
  0.5008824  0.7490619  0.7432281

 Al 
  0.7553500  0.4895414  0.7545320

 Al 
  0.7418556  0.7369561  0.5146775

