32 
charge = 0 
 Al 
  0.0073684  0.9981461  0.0046916

 Al 
  0.0074452  0.2524887  0.2424731

 Al 
  0.2599067  0.0038760  0.2470410

 Al 
  0.2548500  0.2518563  0.0009975

 Al 
  0.4847211  0.9875179  0.9939619

 Al 
  0.5076296  0.2438988  0.2316544

 Al 
  0.7388954  0.0023105  0.2603448

 Al 
  0.7419633  0.2421613  0.9970682

 Al 
  0.9922702  0.4949817  0.9881726

 Al 
  0.9867544  0.7749381  0.2333919

 Al 
  0.2656774  0.4978442  0.2515655

 Al 
  0.2649745  0.7523848  0.0016088

 Al 
  0.9777783  0.0036681  0.5081382

 Al 
  0.0224593  0.2524145  0.7506930

 Al 
  0.2480397  0.0144943  0.7706834

 Al 
  0.2413395  0.2586629  0.4924014

 Al 
  0.0021892  0.5052720  0.4925635

 Al 
  0.9963554  0.7529640  0.7569266

 Al 
  0.2581271  0.5045641  0.7469445

 Al 
  0.2314762  0.7670363  0.4798463

 Al 
  0.5118868  0.4950683  0.9976251

 Al 
  0.5046186  0.7674323  0.2623051

 Al 
  0.7660722  0.5044354  0.2378954

 Al 
  0.7493391  0.7657331  0.9962131

 Al 
  0.4991288  0.9810306  0.5102470

 Al 
  0.4949854  0.2320393  0.7523588

 Al 
  0.7343535  0.9995198  0.7655005

 Al 
  0.7401329  0.2499641  0.4837496

 Al 
  0.5110168  0.4675932  0.5282696

 Al 
  0.5007314  0.7491597  0.7434768

 Al 
  0.7553970  0.4895178  0.7545159

 Al 
  0.7421192  0.7370254  0.5166749

