32 
charge = 0 
 Al 
  0.0006064  0.9965262  0.0066890

 Al 
  0.0109190  0.2537770  0.2427504

 Al 
  0.2540196  0.0012499  0.2484134

 Al 
  0.2553129  0.2526966  0.0005025

 Al 
  0.4884474  0.9946822  0.0016076

 Al 
  0.5078734  0.2410660  0.2345899

 Al 
  0.7509690  0.9925325  0.2563994

 Al 
  0.7508242  0.2481338  0.0003638

 Al 
  0.9873162  0.4902765  0.9748342

 Al 
  0.9946364  0.7723702  0.2355416

 Al 
  0.2652393  0.5012054  0.2547423

 Al 
  0.2588684  0.7531459  0.0022078

 Al 
  0.9739010  0.9935201  0.5043302

 Al 
  0.0134189  0.2601728  0.7445102

 Al 
  0.2421588  0.0233144  0.7654299

 Al 
  0.2367766  0.2692429  0.4985756

 Al 
  0.9987364  0.5139597  0.4924026

 Al 
  0.9973999  0.7452948  0.7602421

 Al 
  0.2588770  0.5090305  0.7449099

 Al 
  0.2341864  0.7616888  0.4719370

 Al 
  0.5098460  0.4818301  0.0009257

 Al 
  0.5091146  0.7592743  0.2650648

 Al 
  0.7709247  0.4956017  0.2409992

 Al 
  0.7476338  0.7663519  0.9856888

 Al 
  0.4962960  0.9879783  0.5096876

 Al 
  0.4957935  0.2348213  0.7483862

 Al 
  0.7327422  0.9963579  0.7675301

 Al 
  0.7401577  0.2539676  0.4840194

 Al 
  0.5185102  0.4741077  0.5255903

 Al 
  0.4975472  0.7485384  0.7473912

 Al 
  0.7555505  0.4888236  0.7542956

 Al 
  0.7453963  0.7384597  0.5294428

