32 
charge = 0 
 Al 
  0.0047993  0.9969308  0.0060344

 Al 
  0.0090924  0.2531570  0.2425363

 Al 
  0.2577484  0.0024120  0.2474791

 Al 
  0.2551829  0.2517227  0.0006596

 Al 
  0.4856591  0.9903086  0.9968257

 Al 
  0.5079452  0.2425561  0.2322892

 Al 
  0.7438506  0.9980607  0.2589971

 Al 
  0.7452354  0.2448616  0.9984134

 Al 
  0.9895599  0.4927912  0.9820219

 Al 
  0.9897567  0.7746609  0.2338275

 Al 
  0.2654596  0.4990273  0.2531855

 Al 
  0.2628818  0.7531558  0.0018984

 Al 
  0.9758651  0.9992946  0.5064192

 Al 
  0.0195448  0.2557361  0.7482946

 Al 
  0.2457972  0.0191265  0.7693790

 Al 
  0.2390822  0.2636924  0.4948938

 Al 
  0.0008168  0.5089760  0.4923519

 Al 
  0.9964717  0.7494839  0.7584909

 Al 
  0.2585961  0.5064069  0.7459000

 Al 
  0.2323981  0.7650240  0.4758477

 Al 
  0.5111839  0.4891466  0.9989939

 Al 
  0.5064477  0.7649448  0.2639114

 Al 
  0.7686612  0.5005656  0.2390736

 Al 
  0.7488911  0.7667083  0.9913581

 Al 
  0.4980880  0.9831642  0.5100936

 Al 
  0.4951525  0.2328820  0.7505260

 Al 
  0.7329971  0.9978714  0.7670029

 Al 
  0.7394028  0.2521286  0.4834612

 Al 
  0.5147468  0.4693060  0.5281100

 Al 
  0.4998515  0.7491473  0.7446958

 Al 
  0.7555616  0.4893409  0.7544577

 Al 
  0.7432689  0.7374090  0.5225731

