32 
charge = 0 
 Al 
  0.0032932  0.9965992  0.0064576

 Al 
  0.0098349  0.2534330  0.2425969

 Al 
  0.2564316  0.0018477  0.2477885

 Al 
  0.2552906  0.2519355  0.0005656

 Al 
  0.4865353  0.9919088  0.9985360

 Al 
  0.5079798  0.2419583  0.2329551

 Al 
  0.7465274  0.9959160  0.2581073

 Al 
  0.7472081  0.2461809  0.9991387

 Al 
  0.9884969  0.4917640  0.9790914

 Al 
  0.9915140  0.7740817  0.2343424

 Al 
  0.2653668  0.4997859  0.2538723

 Al 
  0.2614982  0.7532845  0.0020346

 Al 
  0.9750248  0.9970657  0.5055752

 Al 
  0.0175115  0.2574526  0.7469407

 Al 
  0.2444941  0.0210051  0.7681612

 Al 
  0.2381008  0.2659720  0.4962576

 Al 
  0.0000507  0.5108782  0.4923284

 Al 
  0.9967056  0.7477996  0.7592149

 Al 
  0.2587520  0.5073882  0.7454668

 Al 
  0.2329959  0.7638384  0.4741362

 Al 
  0.5107272  0.4862457  0.9997215

 Al 
  0.5074241  0.7630959  0.2644857

 Al 
  0.7696871  0.4986201  0.2397728

 Al 
  0.7485013  0.7668358  0.9890439

 Al 
  0.4974531  0.9847458  0.5099748

 Al 
  0.4953381  0.2335120  0.7496621

 Al 
  0.7326853  0.9971697  0.7674224

 Al 
  0.7394312  0.2530073  0.4835466

 Al 
  0.5163717  0.4707799  0.5274689

 Al 
  0.4991387  0.7489827  0.7455757

 Al 
  0.7556136  0.4891837  0.7544131

 Al 
  0.7440139  0.7377246  0.5253465

