32 
charge = 0 
 Al 
  0.0022363  0.9964977  0.0066247

 Al 
  0.0102928  0.2535889  0.2426489

 Al 
  0.2554911  0.0015531  0.2480236

 Al 
  0.2553265  0.2521831  0.0005284

 Al 
  0.4872432  0.9930152  0.9997438

 Al 
  0.5079600  0.2415858  0.2335318

 Al 
  0.7483243  0.9945225  0.2574514

 Al 
  0.7486176  0.2470088  0.9996300

 Al 
  0.9879276  0.4911292  0.9772734

 Al 
  0.9927454  0.7735100  0.2347792

 Al 
  0.2653111  0.5003366  0.2542646

 Al 
  0.2604834  0.7532783  0.0021138

 Al 
  0.9745285  0.9956104  0.5050468

 Al 
  0.0159683  0.2585751  0.7459903

 Al 
  0.2435783  0.0220596  0.7671625

 Al 
  0.2375192  0.2673680  0.4971858

 Al 
  0.9995248  0.5121331  0.4923420

 Al 
  0.9969370  0.7467415  0.7596567

 Al 
  0.2588226  0.5080491  0.7452181

 Al 
  0.2334427  0.7629981  0.4731461

 Al 
  0.5103906  0.4843993  0.0002091

 Al 
  0.5080924  0.7616665  0.2647753

 Al 
  0.7702552  0.4973665  0.2402604

 Al 
  0.7481845  0.7667529  0.9876095

 Al 
  0.4970014  0.9859611  0.5098745

 Al 
  0.4955002  0.2340008  0.7491226

 Al 
  0.7326221  0.9967836  0.7675573

 Al 
  0.7396181  0.2534751  0.4836877

 Al 
  0.5173222  0.4719865  0.5268353

 Al 
  0.4985607  0.7488256  0.7462551

 Al 
  0.7556161  0.4890538  0.7543748

 Al 
  0.7445535  0.7379857  0.5270766

