32 
charge = 0 
 Al 
  0.0027684  0.9965361  0.0065529

 Al 
  0.0100676  0.2535134  0.2426217

 Al 
  0.2559675  0.0016917  0.2479036

 Al 
  0.2553129  0.2520494  0.0005445

 Al 
  0.4868781  0.9924595  0.9991349

 Al 
  0.5079749  0.2417702  0.2332298

 Al 
  0.7474271  0.9952143  0.2577843

 Al 
  0.7479048  0.2466017  0.9993837

 Al 
  0.9881974  0.4914398  0.9781657

 Al 
  0.9921254  0.7738144  0.2345527

 Al 
  0.2653383  0.5000569  0.2540753

 Al 
  0.2609982  0.7532894  0.0020754

 Al 
  0.9747698  0.9963331  0.5053067

 Al 
  0.0167566  0.2580182  0.7464692

 Al 
  0.2440399  0.0215534  0.7676786

 Al 
  0.2378026  0.2666836  0.4967205

 Al 
  0.9997884  0.5115081  0.4923321

 Al 
  0.9968133  0.7472625  0.7594401

 Al 
  0.2587904  0.5077187  0.7453381

 Al 
  0.2332149  0.7634226  0.4736238

 Al 
  0.5105614  0.4853114  0.9999653

 Al 
  0.5077570  0.7623991  0.2646404

 Al 
  0.7699829  0.4979865  0.2400153

 Al 
  0.7483479  0.7668123  0.9883137

 Al 
  0.4972303  0.9853386  0.5099265

 Al 
  0.4954161  0.2337496  0.7493874

 Al 
  0.7326382  0.9969667  0.7675053

 Al 
  0.7395067  0.2532548  0.4836097

 Al 
  0.5168618  0.4713616  0.5271719

 Al 
  0.4988602  0.7489085  0.7459074

 Al 
  0.7556185  0.4891206  0.7543946

 Al 
  0.7442800  0.7378496  0.5262252

