32 
charge = 0 
 Al 
  0.9953629  0.9980187  0.0052968

 Al 
  0.0124363  0.2540270  0.2433221

 Al 
  0.2490854  0.0014752  0.2498527

 Al 
  0.2545406  0.2552992  0.0004740

 Al 
  0.4930585  0.9997055  0.0076246

 Al 
  0.5072261  0.2396911  0.2395587

 Al 
  0.7584266  0.9871974  0.2526311

 Al 
  0.7582137  0.2504344  0.0026533

 Al 
  0.9875575  0.4885946  0.9701017

 Al 
  0.0006274  0.7663148  0.2384721

 Al 
  0.2650339  0.5040109  0.2552473

 Al 
  0.2533402  0.7519950  0.0022759

 Al 
  0.9731201  0.9879103  0.5029169

 Al 
  0.0037857  0.2640946  0.7393446

 Al 
  0.2373967  0.0247141  0.7583721

 Al 
  0.2355378  0.2734357  0.5028006

 Al 
  0.9963777  0.5190671  0.4928840

 Al 
  0.9998861  0.7421860  0.7613299

 Al 
  0.2585887  0.5118880  0.7444273

 Al 
  0.2372642  0.7573004  0.4707069

 Al 
  0.5079105  0.4756819  0.0029825

 Al 
  0.5126070  0.7500532  0.2648854

 Al 
  0.7715893  0.4912628  0.2432330

 Al 
  0.7454086  0.7625885  0.9818289

 Al 
  0.4939409  0.9955188  0.5087001

 Al 
  0.4970472  0.2381157  0.7466846

 Al 
  0.7347780  0.9965064  0.7655364

 Al 
  0.7439867  0.2536793  0.4860180

 Al 
  0.5201884  0.4831196  0.5193852

 Al 
  0.4932441  0.7474902  0.7517895

 Al 
  0.7544181  0.4879090  0.7537944

 Al 
  0.7480149  0.7407133  0.5348696

