32 
charge = 0 
 Al 
  0.9984332  0.9968925  0.0064180

 Al 
  0.0116306  0.2539416  0.2429310

 Al 
  0.2520148  0.0011163  0.2489765

 Al 
  0.2551458  0.2536087  0.0004987

 Al 
  0.4902307  0.9968343  0.0040988

 Al 
  0.5076679  0.2404460  0.2363336

 Al 
  0.7542622  0.9901354  0.2549156

 Al 
  0.7538327  0.2493441  0.0013143

 Al 
  0.9869883  0.4893731  0.9722613

 Al 
  0.9971412  0.7703393  0.2366888

 Al 
  0.2651577  0.5023823  0.2551483

 Al 
  0.2566358  0.7527858  0.0022808

 Al 
  0.9733293  0.9909930  0.5035691

 Al 
  0.0097037  0.2620440  0.7424719

 Al 
  0.2402332  0.0243701  0.7627815

 Al 
  0.2360477  0.2712997  0.5003688

 Al 
  0.9977216  0.5162183  0.4925499

 Al 
  0.9982328  0.7437070  0.7608448

 Al 
  0.2588510  0.5102742  0.7446216

 Al 
  0.2353064  0.7599055  0.4709049

 Al 
  0.5090750  0.4788859  0.0018217

 Al 
  0.5104995  0.7557448  0.2651923

 Al 
  0.7714692  0.4935511  0.2419534

 Al 
  0.7467935  0.7652839  0.9836493

 Al 
  0.4953406  0.9909126  0.5093609

 Al 
  0.4962601  0.2360502  0.7475620

 Al 
  0.7332805  0.9961215  0.7670660

 Al 
  0.7413445  0.2542015  0.4846666

 Al 
  0.5196042  0.4774219  0.5234431

 Al 
  0.4959643  0.7481041  0.7490743

 Al 
  0.7552856  0.4884709  0.7541434

 Al 
  0.7465175  0.7392419  0.5320900

