32 
charge = 0 
 Al 
  0.9995136  0.9966648  0.0066036

 Al 
  0.0112928  0.2538711  0.2428333

 Al 
  0.2530184  0.0011447  0.2486907

 Al 
  0.2552522  0.2531248  0.0004987

 Al 
  0.4893211  0.9957750  0.0028600

 Al 
  0.5077818  0.2407455  0.2354166

 Al 
  0.7526583  0.9912925  0.2556656

 Al 
  0.7523266  0.2487835  0.0008440

 Al 
  0.9870811  0.4897889  0.9734407

 Al 
  0.9958975  0.7714259  0.2361022

 Al 
  0.2651973  0.5017957  0.2549787

 Al 
  0.2577570  0.7529887  0.0022524

 Al 
  0.9735743  0.9922145  0.5039194

 Al 
  0.0115972  0.2611517  0.7434978

 Al 
  0.2411972  0.0239307  0.7641453

 Al 
  0.2363732  0.2703369  0.4994852

 Al 
  0.9982204  0.5151193  0.4924682

 Al 
  0.9977872  0.7444471  0.7605700

 Al 
  0.2588783  0.5096654  0.7447478

 Al 
  0.2347285  0.7607977  0.4713331

 Al 
  0.5094649  0.4802832  0.0013836

 Al 
  0.5098052  0.7575491  0.2651651

 Al 
  0.7712452  0.4945287  0.2414831

 Al 
  0.7472266  0.7658940  0.9845886

 Al 
  0.4958183  0.9894201  0.5095354

 Al 
  0.4960175  0.2354178  0.7479506

 Al 
  0.7329600  0.9961908  0.7673581

 Al 
  0.7406873  0.2541458  0.4843151

 Al 
  0.5191290  0.4757029  0.5245805

 Al 
  0.4967861  0.7483243  0.7482142

 Al 
  0.7554465  0.4886528  0.7542263

 Al 
  0.7459618  0.7388298  0.5308438

