32 
charge = 0 
 Al 
  0.9939681  0.9987674  0.0044527

 Al 
  0.0127259  0.2540196  0.2435795

 Al 
  0.2477080  0.0018823  0.2502884

 Al 
  0.2540778  0.2562200  0.0004245

 Al 
  0.4944718  0.0009306  0.0092273

 Al 
  0.5069613  0.2394077  0.2414002

 Al 
  0.7601010  0.9860279  0.2514950

 Al 
  0.7602507  0.2506497  0.0032820

 Al 
  0.9882914  0.4884795  0.9698109

 Al 
  0.0021732  0.7639312  0.2393124

 Al 
  0.2649584  0.5046990  0.2550752

 Al 
  0.2517846  0.7515445  0.0022313

 Al 
  0.9733305  0.9867086  0.5028167

 Al 
  0.0007883  0.2647369  0.7377692

 Al 
  0.2360341  0.0244023  0.7560641

 Al 
  0.2355428  0.2741151  0.5038624

 Al 
  0.9958109  0.5202069  0.4930944

 Al 
  0.0008514  0.7418259  0.7613843

 Al 
  0.2583560  0.5125427  0.7444149

 Al 
  0.2383731  0.7560789  0.4712217

 Al 
  0.5073598  0.4746436  0.0034763

 Al 
  0.5136738  0.7471400  0.2645451

 Al 
  0.7713702  0.4904869  0.2437862

 Al 
  0.7447094  0.7608039  0.9814576

 Al 
  0.4932714  0.9978021  0.5082954

 Al 
  0.4974506  0.2392307  0.7463987

 Al 
  0.7357717  0.9970051  0.7644646

 Al 
  0.7456166  0.2530840  0.4868398

 Al 
  0.5200423  0.4861603  0.5170672

 Al 
  0.4917974  0.7472551  0.7531706

 Al 
  0.7537585  0.4876479  0.7535654

 Al 
  0.7486214  0.7415672  0.5357297

