32 
charge = 0 
 Al 
  0.9926835  0.9995891  0.0034491

 Al 
  0.0129449  0.2539949  0.2438827

 Al 
  0.2464049  0.0024194  0.2507203

 Al 
  0.2535134  0.2571556  0.0003354

 Al 
  0.4958591  0.0020036  0.0106963

 Al 
  0.5066680  0.2391998  0.2433679

 Al 
  0.7615019  0.9850428  0.2503787

 Al 
  0.7621442  0.2506596  0.0038847

 Al 
  0.9892926  0.4885451  0.9700225

 Al 
  0.0035568  0.7613460  0.2400834

 Al 
  0.2648656  0.5052683  0.2547659

 Al 
  0.2503168  0.7510829  0.0021657

 Al 
  0.9737562  0.9857297  0.5028526

 Al 
  0.9978145  0.2651168  0.7361987

 Al 
  0.2347235  0.0238181  0.7537263

 Al 
  0.2357161  0.2745681  0.5048067

 Al 
  0.9953183  0.5211425  0.4933333

 Al 
  0.0018799  0.7417232  0.7613187

 Al 
  0.2580541  0.5130773  0.7444483

 Al 
  0.2395735  0.7549342  0.4721313

 Al 
  0.5068450  0.4739679  0.0039169

 Al 
  0.5147517  0.7442317  0.2640995

 Al 
  0.7709903  0.4899473  0.2442763

 Al 
  0.7440349  0.7587694  0.9814069

 Al 
  0.4926217  0.0000235  0.5078461

 Al 
  0.4978442  0.2403916  0.7462056

 Al 
  0.7368930  0.9976808  0.7632370

 Al 
  0.7474011  0.2523142  0.4877407

 Al 
  0.5196376  0.4892555  0.5146008

 Al 
  0.4903334  0.7470992  0.7545381

 Al 
  0.7529516  0.4874177  0.7533031

 Al 
  0.7491102  0.7424880  0.5362581

