32 
charge = 0 
 Al 
  0.9935263  0.9990347  0.0041347

 Al 
  0.0128075  0.2540122  0.2436748

 Al 
  0.2472650  0.0020482  0.2504331

 Al 
  0.2538996  0.2565319  0.0003997

 Al 
  0.4949371  0.0013044  0.0097322

 Al 
  0.5068660  0.2393297  0.2420425

 Al 
  0.7605985  0.9856789  0.2511200

 Al 
  0.7608992  0.2506745  0.0034862

 Al 
  0.9885971  0.4884820  0.9698270

 Al 
  0.0026533  0.7630897  0.2395785

 Al 
  0.2649287  0.5049032  0.2549874

 Al 
  0.2512846  0.7513910  0.0022115

 Al 
  0.9734481  0.9863571  0.5028142

 Al 
  0.9997921  0.2648928  0.7372444

 Al 
  0.2355911  0.0242364  0.7552869

 Al 
  0.2355824  0.2742909  0.5041904

 Al 
  0.9956376  0.5205423  0.4931711

 Al 
  0.0011893  0.7417640  0.7613744

 Al 
  0.2582632  0.5127345  0.7444211

 Al 
  0.2387629  0.7556878  0.4714816

 Al 
  0.5071841  0.4743787  0.0036285

 Al 
  0.5140315  0.7461673  0.2644077

 Al 
  0.7712613  0.4902814  0.2439557

 Al 
  0.7444805  0.7601517  0.9814069

 Al 
  0.4930523  0.9985508  0.5081493

 Al 
  0.4975830  0.2396131  0.7463244

 Al 
  0.7361331  0.9972118  0.7640711

 Al 
  0.7461957  0.2528439  0.4871318

 Al 
  0.5199347  0.4871888  0.5162603

 Al 
  0.4913098  0.7471932  0.7536298

 Al 
  0.7535048  0.4875662  0.7534813

 Al 
  0.7487983  0.7418667  0.5359425

