32 
charge = 0 
 Al 
  0.9908284  0.0010198  0.0014776

 Al 
  0.0131503  0.2539478  0.2445052

 Al 
  0.2444211  0.0035431  0.2514269

 Al 
  0.2523786  0.2586827  0.0000792

 Al 
  0.4980744  0.0034540  0.0128075

 Al 
  0.5061235  0.2390463  0.2468739

 Al 
  0.7632543  0.9837718  0.2486077

 Al 
  0.7649188  0.2502884  0.0048265

 Al 
  0.9914633  0.4890278  0.9713925

 Al 
  0.0054626  0.7567064  0.2411688

 Al 
  0.2646577  0.5059044  0.2539713

 Al 
  0.2481028  0.7503280  0.0020308

 Al 
  0.9749295  0.9845725  0.5031583

 Al 
  0.9930041  0.2651923  0.7336382

 Al 
  0.2326803  0.0223405  0.7498441

 Al 
  0.2363633  0.2748874  0.5060999

 Al 
  0.9946673  0.5222303  0.4937998

 Al 
  0.0036558  0.7420771  0.7609685

 Al 
  0.2574031  0.5136738  0.7445832

 Al 
  0.2417690  0.7532313  0.4744654

 Al 
  0.5060925  0.4735954  0.0045443

 Al 
  0.5165660  0.7394943  0.2631640

 Al 
  0.7700498  0.4895166  0.2449644

 Al 
  0.7430251  0.7549329  0.9819365

 Al 
  0.4915833  0.0035097  0.5070096

 Al 
  0.4984568  0.2424100  0.7460720

 Al 
  0.7389647  0.9991312  0.7609512

 Al 
  0.7506039  0.2507574  0.4893718

 Al 
  0.5184756  0.4943901  0.5102557

 Al 
  0.4879202  0.7470596  0.7567348

 Al 
  0.7513205  0.4871405  0.7528167

 Al 
  0.7496386  0.7441377  0.5364549

