32 
charge = 0 
 Al 
  0.9922826  0.9998725  0.0030828

 Al 
  0.0130018  0.2539850  0.2439953

 Al 
  0.2459891  0.0026236  0.2508626

 Al 
  0.2533055  0.2574662  0.0002970

 Al 
  0.4963121  0.0023266  0.0111529

 Al 
  0.5065640  0.2391478  0.2440486

 Al 
  0.7619091  0.9847520  0.2500149

 Al 
  0.7627395  0.2506213  0.0040790

 Al 
  0.9896800  0.4886045  0.9701995

 Al 
  0.0039800  0.7604463  0.2403210

 Al 
  0.2648297  0.5054279  0.2546334

 Al 
  0.2498490  0.7509282  0.0021410

 Al 
  0.9739444  0.9854512  0.5028922

 Al 
  0.9968343  0.2651874  0.7356789

 Al 
  0.2342990  0.0235694  0.7529454

 Al 
  0.2358101  0.2746733  0.5050938

 Al 
  0.9951723  0.5214074  0.4934199

 Al 
  0.0022313  0.7417430  0.7612717

 Al 
  0.2579390  0.5132271  0.7444681

 Al 
  0.2399931  0.7545728  0.4725199

 Al 
  0.5066828  0.4738194  0.0040530

 Al 
  0.5151131  0.7432689  0.2639312

 Al 
  0.7708307  0.4898161  0.2444260

 Al 
  0.7438196  0.7580429  0.9814564

 Al 
  0.4924088  0.0007450  0.5076865

 Al 
  0.4979716  0.2407876  0.7461611

 Al 
  0.7372890  0.9979407  0.7628001

 Al 
  0.7480236  0.2520271  0.4880563

 Al 
  0.5194508  0.4902888  0.5137506

 Al 
  0.4898458  0.7470670  0.7549874

 Al 
  0.7526521  0.4873496  0.7532102

 Al 
  0.7492451  0.7428073  0.5363633

