32 
charge = 0 
 Al 
  0.9901973  0.0015816  0.0006039

 Al 
  0.0131763  0.2539354  0.2447973

 Al 
  0.2436959  0.0040505  0.2517041

 Al 
  0.2518675  0.2592619  0.9999295

 Al 
  0.4989147  0.0039181  0.0135228

 Al 
  0.5058883  0.2390612  0.2483355

 Al 
  0.7637654  0.9833795  0.2479456

 Al 
  0.7658742  0.2500285  0.0051792

 Al 
  0.9924744  0.4893396  0.9722538

 Al 
  0.0060764  0.7547782  0.2415264

 Al 
  0.2645513  0.5060405  0.2535691

 Al 
  0.2473095  0.7500433  0.0019764

 Al 
  0.9755520  0.9842656  0.5033414

 Al 
  0.9911626  0.2650389  0.7326568

 Al 
  0.2319229  0.0216017  0.7483206

 Al 
  0.2367408  0.2748837  0.5065158

 Al 
  0.9944644  0.5224964  0.4940114

 Al 
  0.0043636  0.7423840  0.7607532

 Al 
  0.2570937  0.5138013  0.7446599

 Al 
  0.2427120  0.7526298  0.4756547

 Al 
  0.5058326  0.4736882  0.0047609

 Al 
  0.5172925  0.7376739  0.2627296

 Al 
  0.7695832  0.4894906  0.2451970

 Al 
  0.7426773  0.7532795  0.9823264

 Al 
  0.4911886  0.0048079  0.5066494

 Al 
  0.4986808  0.2432417  0.7460782

 Al 
  0.7398396  0.9998020  0.7599847

 Al 
  0.7519219  0.2500718  0.4900500

 Al 
  0.5178679  0.4963888  0.5084711

 Al 
  0.4869858  0.7471313  0.7575714

 Al 
  0.7505829  0.4870786  0.7526113

 Al 
  0.7497438  0.7448270  0.5363126

