32 
charge = 0 
 Al 
  0.9884152  0.0035592  0.9968145

 Al 
  0.0129647  0.2539652  0.2462242

 Al 
  0.2412009  0.0061915  0.2527622

 Al 
  0.2496102  0.2612259  0.9990161

 Al 
  0.5019405  0.0051631  0.0156094

 Al 
  0.5048822  0.2396082  0.2543228

 Al 
  0.7648879  0.9823400  0.2457106

 Al 
  0.7687045  0.2485978  0.0064378

 Al 
  0.9970274  0.4911205  0.9770482

 Al 
  0.0076766  0.7470212  0.2425288

 Al 
  0.2639325  0.5058920  0.2516113

 Al 
  0.2447255  0.7491052  0.0018167

 Al 
  0.9788129  0.9838275  0.5041755

 Al 
  0.9845763  0.2635414  0.7292065

 Al 
  0.2292993  0.0180734  0.7426204

 Al 
  0.2388335  0.2742872  0.5076036

 Al 
  0.9939582  0.5225991  0.4950176

 Al 
  0.0069687  0.7443580  0.7595255

 Al 
  0.2556346  0.5136330  0.7450547

 Al 
  0.2467700  0.7507116  0.4815517

 Al 
  0.5050641  0.4752166  0.0054180

 Al 
  0.5201153  0.7311309  0.2606777

 Al 
  0.7673680  0.4900005  0.2459606

 Al 
  0.7417219  0.7463257  0.9846010

 Al 
  0.4897641  0.0093114  0.5051136

 Al 
  0.4994146  0.2466648  0.7463764

 Al 
  0.7433852  0.0027808  0.7560740

 Al 
  0.7570380  0.2472439  0.4926749

 Al 
  0.5148495  0.5037053  0.5014541

 Al 
  0.4835973  0.7479407  0.7605663

 Al 
  0.7472910  0.4872061  0.7517660

 Al 
  0.7495681  0.7476523  0.5346604

