32 
charge = 0 
 Al 
  0.9899077  0.0018551  0.0001522

 Al 
  0.0131788  0.2539317  0.2449520

 Al 
  0.2433493  0.0043129  0.2518403

 Al 
  0.2516014  0.2595416  0.9998441

 Al 
  0.4993243  0.0041260  0.0138520

 Al 
  0.5057670  0.2390872  0.2490755

 Al 
  0.7639832  0.9832050  0.2476276

 Al 
  0.7663173  0.2498787  0.0053500

 Al 
  0.9930041  0.4895178  0.9727427

 Al 
  0.0063512  0.7538055  0.2416885

 Al 
  0.2644919  0.5060814  0.2533526

 Al 
  0.2469346  0.7499072  0.0019492

 Al 
  0.9758948  0.9841431  0.5034417

 Al 
  0.9902653  0.2649262  0.7321791

 Al 
  0.2315578  0.0212069  0.7475707

 Al 
  0.2369524  0.2748564  0.5067014

 Al 
  0.9943740  0.5225929  0.4941228

 Al 
  0.0047126  0.7425697  0.7606307

 Al 
  0.2569291  0.5138409  0.7447032

 Al 
  0.2431959  0.7523477  0.4762994

 Al 
  0.5057126  0.4737822  0.0048611

 Al 
  0.5176538  0.7367853  0.2624994

 Al 
  0.7693344  0.4895030  0.2453072

 Al 
  0.7425189  0.7524355  0.9825541

 Al 
  0.4909955  0.0054329  0.5064638

 Al 
  0.4987872  0.2436624  0.7460930

 Al 
  0.7402827  0.0001522  0.7594971

 Al 
  0.7525828  0.2497215  0.4903891

 Al 
  0.5175375  0.4973689  0.5075776

 Al 
  0.4865291  0.7471870  0.7579786

 Al 
  0.7501992  0.4870600  0.7525073

 Al 
  0.7497735  0.7451760  0.5361987

