32 
charge = 0 
 Al 
  0.9885674  0.0033439  0.9973046

 Al 
  0.0130192  0.2539528  0.2460237

 Al 
  0.2414794  0.0059242  0.2526348

 Al 
  0.2499047  0.2610205  0.9991597

 Al 
  0.5015952  0.0050579  0.0154163

 Al 
  0.5050121  0.2394956  0.2535716

 Al 
  0.7648186  0.9824303  0.2459470

 Al 
  0.7684409  0.2487971  0.0062942

 Al 
  0.9964296  0.4908581  0.9763539

 Al 
  0.0075491  0.7479778  0.2424373

 Al 
  0.2640302  0.5059675  0.2518786

 Al 
  0.2449965  0.7492005  0.0018266

 Al 
  0.9783451  0.9838189  0.5040765

 Al 
  0.9853163  0.2637951  0.7295827

 Al 
  0.2295876  0.0185523  0.7432887

 Al 
  0.2385266  0.2744047  0.5075157

 Al 
  0.9939966  0.5226684  0.4948765

 Al 
  0.0066729  0.7440585  0.7597087

 Al 
  0.2558339  0.5137147  0.7450002

 Al 
  0.2462428  0.7509096  0.4807336

 Al 
  0.5051371  0.4749369  0.0053562

 Al 
  0.5197750  0.7318685  0.2609611

 Al 
  0.7676674  0.4898941  0.2458752

 Al 
  0.7417999  0.7472093  0.9842693

 Al 
  0.4899250  0.0088139  0.5053091

 Al 
  0.4993391  0.2462291  0.7463195

 Al 
  0.7429496  0.0023934  0.7565578

 Al 
  0.7564304  0.2475929  0.4923667

 Al 
  0.5152666  0.5028662  0.5023006

 Al 
  0.4839822  0.7477947  0.7602272

 Al 
  0.7477266  0.4871529  0.7518737

 Al 
  0.7496411  0.7472984  0.5349525

