32 
charge = 0 
 Al 
  0.9891491  0.0026372  0.9987538

 Al 
  0.0131343  0.2539317  0.2454581

 Al 
  0.2423692  0.0051148  0.2522449

 Al 
  0.2507722  0.2603287  0.9995409

 Al 
  0.5005012  0.0046569  0.0147220

 Al 
  0.5053945  0.2392357  0.2513168

 Al 
  0.7644956  0.9827632  0.2467353

 Al 
  0.7674954  0.2493713  0.0058388

 Al 
  0.9946735  0.4901342  0.9744171

 Al 
  0.0070442  0.7508799  0.2421093

 Al 
  0.2642852  0.5060999  0.2526471

 Al 
  0.2458975  0.7495285  0.0018774

 Al 
  0.9770395  0.9838981  0.5037597

 Al 
  0.9876900  0.2644523  0.7308153

 Al 
  0.2305232  0.0199322  0.7453765

 Al 
  0.2376788  0.2746894  0.5071704

 Al 
  0.9941525  0.5227377  0.4944805

 Al 
  0.0057274  0.7432404  0.7602074

 Al 
  0.2564031  0.5138557  0.7448431

 Al 
  0.2446909  0.7515742  0.4784045

 Al 
  0.5053945  0.4742389  0.0051334

 Al 
  0.5187280  0.7342297  0.2617655

 Al 
  0.7685337  0.4896391  0.2456067

 Al 
  0.7421068  0.7498465  0.9833449

 Al 
  0.4904398  0.0072051  0.5058933

 Al 
  0.4990830  0.2449359  0.7461784

 Al 
  0.7416205  0.0012487  0.7580231

 Al 
  0.7545406  0.2486560  0.4913977

 Al 
  0.5164571  0.5002079  0.5049082

 Al 
  0.4852099  0.7474333  0.7591468

 Al 
  0.7489951  0.4870600  0.7521930

 Al 
  0.7497735  0.7462341  0.5356901

