32 
charge = 0 
 Al 
  0.9880291  0.0050059  0.9923741

 Al 
  0.0121120  0.2541594  0.2483380

 Al 
  0.2390909  0.0084290  0.2538179

 Al 
  0.2468974  0.2624041  0.9972984

 Al 
  0.5046087  0.0056037  0.0165450

 Al 
  0.5037251  0.2411898  0.2609475

 Al 
  0.7648433  0.9819316  0.2442070

 Al 
  0.7698975  0.2468133  0.0075875

 Al 
  0.0025011  0.4938679  0.9841184

 Al 
  0.0080244  0.7387778  0.2430288

 Al 
  0.2626924  0.5046037  0.2490520

 Al 
  0.2429100  0.7485719  0.0019393

 Al 
  0.9837124  0.9845800  0.5047225

 Al 
  0.9792832  0.2606356  0.7267747

 Al 
  0.2272672  0.0135612  0.7372531

 Al 
  0.2420388  0.2727823  0.5078721

 Al 
  0.9938666  0.5209977  0.4965534

 Al 
  0.0090812  0.7474519  0.7575405

 Al 
  0.2536570  0.5121009  0.7456104

 Al 
  0.2516596  0.7493849  0.4895760

 Al 
  0.5047089  0.4786459  0.0057138

 Al 
  0.5229345  0.7257574  0.2576939

 Al 
  0.7645240  0.4912690  0.2467044

 Al 
  0.7416031  0.7383793  0.9879709

 Al 
  0.4885909  0.0129412  0.5033847

 Al 
  0.4998651  0.2506658  0.7470620

 Al 
  0.7470113  0.0062460  0.7519009

 Al 
  0.7617432  0.2443493  0.4949087

 Al 
  0.5108052  0.5100824  0.4945943

 Al 
  0.4807658  0.7497847  0.7631293

 Al 
  0.7432120  0.4882642  0.7507190

 Al 
  0.7483392  0.7507599  0.5310603

