32 
charge = 0 
 Al 
  0.9881726  0.0039590  0.9958282

 Al 
  0.0128310  0.2539961  0.2466474

 Al 
  0.2406750  0.0067175  0.2530110

 Al 
  0.2490149  0.2615972  0.9987006

 Al 
  0.5026014  0.0053388  0.0159398

 Al 
  0.5046235  0.2398693  0.2558190

 Al 
  0.7649770  0.9821902  0.2452775

 Al 
  0.7691500  0.2481919  0.0067150

 Al 
  0.9982365  0.4916724  0.9784986

 Al 
  0.0078758  0.7451302  0.2426872

 Al 
  0.2637171  0.5056953  0.2510631

 Al 
  0.2442280  0.7489332  0.0018081

 Al 
  0.9797956  0.9838906  0.5043575

 Al 
  0.9831815  0.2629857  0.7285122

 Al 
  0.2287585  0.0170982  0.7413247

 Al 
  0.2394795  0.2740211  0.5077422

 Al 
  0.9939001  0.5223925  0.4953146

 Al 
  0.0075256  0.7449916  0.7591382

 Al 
  0.2552262  0.5134164  0.7451698

 Al 
  0.2478355  0.7503478  0.4832397

 Al 
  0.5049403  0.4758440  0.0055257

 Al 
  0.5207811  0.7297349  0.2600849

 Al 
  0.7667566  0.4902393  0.2461264

 Al 
  0.7416044  0.7445560  0.9852940

 Al 
  0.4894584  0.0102495  0.5047213

 Al 
  0.4995520  0.2475397  0.7465039

 Al 
  0.7442429  0.0035592  0.7551186

 Al 
  0.7582088  0.2465596  0.4932615

 Al 
  0.5139906  0.5053079  0.4998020

 Al 
  0.4828659  0.7482687  0.7612123

 Al 
  0.7464086  0.4873496  0.7515482

 Al 
  0.7493825  0.7483565  0.5340082

