32 
charge = 0 
 Al 
  0.9902096  0.0056074  0.9871479

 Al 
  0.0101134  0.2544614  0.2516534

 Al 
  0.2372890  0.0105515  0.2547869

 Al 
  0.2436043  0.2617284  0.9941179

 Al 
  0.5068672  0.0051990  0.0159844

 Al 
  0.5023873  0.2446909  0.2684174

 Al 
  0.7636540  0.9823041  0.2439248

 Al 
  0.7685238  0.2452181  0.0087867

 Al 
  0.0088783  0.4981672  0.9944359

 Al 
  0.0067583  0.7294948  0.2432837

 Al 
  0.2600181  0.5018341  0.2456710

 Al 
  0.2420338  0.7488850  0.0028526

 Al 
  0.9914633  0.9869697  0.5038723

 Al 
  0.9767066  0.2560529  0.7267957

 Al 
  0.2264504  0.0079588  0.7322744

 Al 
  0.2468554  0.2698678  0.5071692

 Al 
  0.9942391  0.5168581  0.4993750

 Al 
  0.0100181  0.7515333  0.7541285

 Al 
  0.2506175  0.5082446  0.7464593

 Al 
  0.2578338  0.7486028  0.5005161

 Al 
  0.5047621  0.4846975  0.0054428

 Al 
  0.5255718  0.7227637  0.2523712

 Al 
  0.7608472  0.4931154  0.2478120

 Al 
  0.7430412  0.7286001  0.9928927

 Al 
  0.4880266  0.0153742  0.5016385

 Al 
  0.4998008  0.2558388  0.7481783

 Al 
  0.7502921  0.0101047  0.7471746

 Al 
  0.7649683  0.2415289  0.4956772

 Al 
  0.5054094  0.5148668  0.4888025

 Al 
  0.4791421  0.7533068  0.7651255

 Al 
  0.7379845  0.4912913  0.7489134

 Al 
  0.7456326  0.7542807  0.5243169

