32 
charge = 0 
 Al 
  0.9895785  0.0055901  0.9880687

 Al 
  0.0105614  0.2544119  0.2509900

 Al 
  0.2375551  0.0102297  0.2546495

 Al 
  0.2441872  0.2620600  0.9947886

 Al 
  0.5065405  0.0053327  0.0162121

 Al 
  0.5026212  0.2439075  0.2671365

 Al 
  0.7639387  0.9821680  0.2438518

 Al 
  0.7690127  0.2454297  0.0085775

 Al 
  0.0077744  0.4973133  0.9924335

 Al 
  0.0071172  0.7311148  0.2432243

 Al 
  0.2606109  0.5024269  0.2463046

 Al 
  0.2420784  0.7487315  0.0026088

 Al 
  0.9898965  0.9864289  0.5042065

 Al 
  0.9768180  0.2569353  0.7264913

 Al 
  0.2264232  0.0089649  0.7330429

 Al 
  0.2459111  0.2704903  0.5073672

 Al 
  0.9941327  0.5177825  0.4987600

 Al 
  0.0100119  0.7508081  0.7548438

 Al 
  0.2512314  0.5091097  0.7462886

 Al 
  0.2567002  0.7486919  0.4984555

 Al 
  0.5047436  0.4834600  0.0055418

 Al 
  0.5251893  0.7229704  0.2535271

 Al 
  0.7615279  0.4927949  0.2475744

 Al 
  0.7426278  0.7303908  0.9919373

 Al 
  0.4880427  0.0150995  0.5019058

 Al 
  0.4998663  0.2548723  0.7479605

 Al 
  0.7498206  0.0094612  0.7480088

 Al 
  0.7646342  0.2419769  0.4957403

 Al 
  0.5064242  0.5142481  0.4895909

 Al 
  0.4792659  0.7525630  0.7648520

 Al 
  0.7389436  0.4905747  0.7493132

 Al 
  0.7462106  0.7536595  0.5257438

