32 
charge = 0 
 Al 
  0.9943233  0.0051544  0.9833647

 Al 
  0.0076382  0.2545914  0.2549020

 Al 
  0.2365242  0.0114660  0.2550505

 Al 
  0.2411910  0.2589018  0.9906366

 Al 
  0.5077867  0.0043525  0.0143347

 Al 
  0.5014257  0.2490496  0.2733936

 Al 
  0.7621380  0.9832644  0.2448889

 Al 
  0.7650166  0.2448629  0.0096381

 Al 
  0.0132914  0.5021459  0.0037709

 Al 
  0.0045258  0.7229902  0.2440052

 Al 
  0.2568412  0.4987290  0.2428197

 Al 
  0.2425536  0.7502537  0.0044391

 Al 
  0.9992686  0.9898619  0.5010049

 Al 
  0.9783451  0.2521855  0.7300926

 Al 
  0.2279182  0.0037201  0.7298302

 Al 
  0.2513131  0.2665784  0.5059651

 Al 
  0.9949532  0.5118039  0.5027981

 Al 
  0.0088832  0.7543946  0.7503898

 Al 
  0.2475026  0.5035518  0.7473727

 Al 
  0.2628187  0.7484221  0.5097941

 Al 
  0.5045567  0.4907863  0.0046904

 Al 
  0.5263044  0.7240780  0.2460819

 Al 
  0.7577521  0.4940981  0.2492711

 Al 
  0.7459903  0.7207626  0.9973182

 Al 
  0.4885377  0.0155500  0.5008391

 Al 
  0.4992055  0.2602260  0.7492067

 Al 
  0.7515049  0.0124041  0.7436204

 Al 
  0.7648718  0.2399894  0.4941921

 Al 
  0.5007339  0.5162195  0.4870650

 Al 
  0.4797263  0.7571457  0.7658396

 Al 
  0.7338362  0.4954421  0.7465522

 Al 
  0.7427244  0.7570157  0.5168346

