32 
charge = 0 
 Al 
  0.9917912  0.0055146  0.9853732

 Al 
  0.0091010  0.2545443  0.2530543

 Al 
  0.2368509  0.0110799  0.2549849

 Al 
  0.2424793  0.2607470  0.9926551

 Al 
  0.5073969  0.0048661  0.0153730

 Al 
  0.5019368  0.2464655  0.2708220

 Al 
  0.7630179  0.9826642  0.2442317

 Al 
  0.7672244  0.2449322  0.0091901

 Al 
  0.0109698  0.4999369  0.9985632

 Al 
  0.0058821  0.7264009  0.2434842

 Al 
  0.2586976  0.5005346  0.2443914

 Al 
  0.2421130  0.7493490  0.0034590

 Al 
  0.9948010  0.9881726  0.5028897

 Al 
  0.9769999  0.2542844  0.7278637

 Al 
  0.2268081  0.0059960  0.7309601

 Al 
  0.2488144  0.2685003  0.5066915

 Al 
  0.9945077  0.5147827  0.5007636

 Al 
  0.0097644  0.7529107  0.7525630

 Al 
  0.2493020  0.5063041  0.7468318

 Al 
  0.2600948  0.7484815  0.5046805

 Al 
  0.5047547  0.4873236  0.0051742

 Al 
  0.5261311  0.7228739  0.2497797

 Al 
  0.7594723  0.4936699  0.2483677

 Al 
  0.7441154  0.7250371  0.9948567

 Al 
  0.4881293  0.0156762  0.5011967

 Al 
  0.4995953  0.2577954  0.7486313

 Al 
  0.7510272  0.0112668  0.7455460

 Al 
  0.7652542  0.2407393  0.4952527

 Al 
  0.5033414  0.5157579  0.4876467

 Al 
  0.4791557  0.7549267  0.7655463

 Al 
  0.7360848  0.4929558  0.7479840

 Al 
  0.7443877  0.7555109  0.5211945

