32 
charge = 0 
 Al 
  0.9927355  0.0054044  0.9845354

 Al 
  0.0085392  0.2545728  0.2537845

 Al 
  0.2366875  0.0112754  0.2550394

 Al 
  0.2419447  0.2600923  0.9918680

 Al 
  0.5075912  0.0046706  0.0149918

 Al 
  0.5017239  0.2474543  0.2719197

 Al 
  0.7626739  0.9828845  0.2444607

 Al 
  0.7664150  0.2448641  0.0093795

 Al 
  0.0119425  0.5008316  0.0006571

 Al 
  0.0053698  0.7249604  0.2436476

 Al 
  0.2579761  0.4998329  0.2437528

 Al 
  0.2422430  0.7496659  0.0038228

 Al 
  0.9965583  0.9888273  0.5022251

 Al 
  0.9774095  0.2534206  0.7286372

 Al 
  0.2271571  0.0050554  0.7304317

 Al 
  0.2498144  0.2677565  0.5064155

 Al 
  0.9946711  0.5136379  0.5015395

 Al 
  0.0094896  0.7535431  0.7517177

 Al 
  0.2486003  0.5052398  0.7470360

 Al 
  0.2612061  0.7484469  0.5067546

 Al 
  0.5047077  0.4886949  0.0050010

 Al 
  0.5262821  0.7232092  0.2483540

 Al 
  0.7587830  0.4938840  0.2486968

 Al 
  0.7447911  0.7232897  0.9958492

 Al 
  0.4882543  0.0156960  0.5010259

 Al 
  0.4994567  0.2587743  0.7488614

 Al 
  0.7512809  0.0117705  0.7447564

 Al 
  0.7651997  0.2404052  0.4948951

 Al 
  0.5022969  0.5160277  0.4872939

 Al 
  0.4793067  0.7557930  0.7656935

 Al 
  0.7351616  0.4939013  0.7474481

 Al 
  0.7437305  0.7561185  0.5195052

