32 
charge = 0 
 Al 
  0.9905648  0.0056000  0.9866950

 Al 
  0.0098745  0.2544849  0.2519950

 Al 
  0.2371665  0.0106987  0.2548463

 Al 
  0.2433172  0.2615242  0.9937676

 Al 
  0.5070170  0.0051235  0.0158507

 Al 
  0.5022722  0.2451079  0.2690411

 Al 
  0.7635030  0.9823833  0.2439817

 Al 
  0.7682392  0.2451290  0.0088894

 Al 
  0.0094166  0.4986040  0.9954544

 Al 
  0.0065591  0.7287003  0.2433209

 Al 
  0.2597050  0.5015234  0.2453517

 Al 
  0.2420313  0.7489815  0.0029887

 Al 
  0.9922727  0.9872556  0.5036669

 Al 
  0.9767153  0.2556099  0.7270036

 Al 
  0.2264999  0.0074613  0.7319167

 Al 
  0.2473368  0.2695423  0.5070603

 Al 
  0.9942985  0.5163668  0.4997017

 Al 
  0.0099896  0.7518885  0.7537535

 Al 
  0.2502995  0.5077843  0.7465484

 Al 
  0.2584006  0.7485644  0.5015544

 Al 
  0.5047683  0.4853361  0.0053846

 Al 
  0.5257401  0.7227241  0.2517586

 Al 
  0.7605044  0.4932664  0.2479395

 Al 
  0.7432776  0.7277053  0.9933778

 Al 
  0.4880340  0.0154819  0.5015160

 Al 
  0.4997587  0.2563252  0.7482909

 Al 
  0.7505025  0.0104129  0.7467625

 Al 
  0.7650884  0.2413173  0.4956079

 Al 
  0.5048970  0.5151329  0.4884597

 Al 
  0.4791112  0.7536966  0.7652455

 Al 
  0.7375056  0.4916786  0.7486981

 Al 
  0.7453319  0.7545901  0.5235694

