32 
charge = 0 
 Al 
  0.9960745  0.0048079  0.9823338

 Al 
  0.0066841  0.2545777  0.2560207

 Al 
  0.2364747  0.0115180  0.2549676

 Al 
  0.2405141  0.2574786  0.9893681

 Al 
  0.5078598  0.0040147  0.0135860

 Al 
  0.5011608  0.2507463  0.2746126

 Al 
  0.7615935  0.9836951  0.2453975

 Al 
  0.7634238  0.2449829  0.0098559

 Al 
  0.0144782  0.5033748  0.0067620

 Al 
  0.0036124  0.7213195  0.2445300

 Al 
  0.2556730  0.4975806  0.2419459

 Al 
  0.2430016  0.7509727  0.0051285

 Al 
  0.0020123  0.9909410  0.4995186

 Al 
  0.9796396  0.2510655  0.7318747

 Al 
  0.2289713  0.0025098  0.7294862

 Al 
  0.2527660  0.2653408  0.5054812

 Al 
  0.9952762  0.5098597  0.5041520

 Al 
  0.0080367  0.7550988  0.7490137

 Al 
  0.2463628  0.5017982  0.7477501

 Al 
  0.2643248  0.7484246  0.5126677

 Al 
  0.5042807  0.4928679  0.0043166

 Al 
  0.5260445  0.7253836  0.2437107

 Al 
  0.7567361  0.4941587  0.2499530

 Al 
  0.7474172  0.7184137  0.9987191

 Al 
  0.4889411  0.0151923  0.5007339

 Al 
  0.4989097  0.2616232  0.7495458

 Al 
  0.7515358  0.0128744  0.7425598

 Al 
  0.7642629  0.2396899  0.4933258

 Al 
  0.4992042  0.5161650  0.4871949

 Al 
  0.4803859  0.7585330  0.7659002

 Al 
  0.7326197  0.4971041  0.7455497

 Al 
  0.7417195  0.7578845  0.5140389

