32 
charge = 0 
 Al 
  0.9954755  0.0049342  0.9826593

 Al 
  0.0070071  0.2545864  0.2556495

 Al 
  0.2364772  0.0115168  0.2550072

 Al 
  0.2407307  0.2579773  0.9897926

 Al 
  0.5078499  0.0041285  0.0138446

 Al 
  0.5012450  0.2501720  0.2742377

 Al 
  0.7617754  0.9835466  0.2452205

 Al 
  0.7639733  0.2449297  0.0097891

 Al 
  0.0141020  0.5029788  0.0057856

 Al 
  0.0039231  0.7218380  0.2443344

 Al 
  0.2560628  0.4979667  0.2422281

 Al 
  0.2428370  0.7507190  0.0048921

 Al 
  0.0010977  0.9905784  0.5000421

 Al 
  0.9791706  0.2514244  0.7312472

 Al 
  0.2285877  0.0028971  0.7295703

 Al 
  0.2522895  0.2657579  0.5056445

 Al 
  0.9951648  0.5105180  0.5036916

 Al 
  0.0083449  0.7548822  0.7494753

 Al 
  0.2467464  0.5023873  0.7476202

 Al 
  0.2638384  0.7484209  0.5117333

 Al 
  0.5043884  0.4921786  0.0044478

 Al 
  0.5261645  0.7249010  0.2445077

 Al 
  0.7570727  0.4941575  0.2497129

 Al 
  0.7469160  0.7191723  0.9982625

 Al 
  0.4887939  0.0153346  0.5007599

 Al 
  0.4990124  0.2611665  0.7494332

 Al 
  0.7515470  0.0127370  0.7429038

 Al 
  0.7644956  0.2397765  0.4936290

 Al 
  0.4997092  0.5162084  0.4871120

 Al 
  0.4801384  0.7580701  0.7658891

 Al 
  0.7330107  0.4965385  0.7458950

 Al 
  0.7420511  0.7575986  0.5149807

