32 
charge = 0 
 Al 
  0.0004492  0.0036459  0.9806668

 Al 
  0.0044045  0.2543847  0.2584464

 Al 
  0.2368992  0.0110477  0.2543426

 Al 
  0.2393372  0.2534491  0.9864982

 Al 
  0.5075479  0.0032635  0.0115960

 Al 
  0.5007104  0.2548240  0.2762066

 Al 
  0.7603745  0.9848646  0.2467205

 Al 
  0.7592050  0.2456933  0.0101480

 Al 
  0.0164955  0.5055616  0.0126516

 Al 
  0.0014034  0.7189830  0.2465769

 Al 
  0.2530852  0.4948901  0.2403408

 Al 
  0.2445176  0.7530803  0.0069019

 Al 
  0.0081320  0.9934805  0.4952453

 Al 
  0.9837273  0.2490941  0.7369635

 Al 
  0.2325071  0.0003552  0.7297931

 Al 
  0.2557101  0.2623806  0.5043154

 Al 
  0.9961636  0.5051371  0.5074835

 Al 
  0.0052151  0.7560418  0.7458208

 Al 
  0.2436674  0.4977773  0.7487996

 Al 
  0.2671440  0.7484568  0.5182182

 Al 
  0.5030283  0.4973454  0.0032115

 Al 
  0.5242055  0.7299267  0.2382568

 Al 
  0.7544565  0.4936414  0.2520073

 Al 
  0.7515482  0.7140476  0.0014578

 Al 
  0.4903173  0.0136070  0.5007623

 Al 
  0.4981164  0.2644609  0.7502661

 Al 
  0.7508923  0.0132716  0.7404893

 Al 
  0.7619586  0.2394659  0.4910054

 Al 
  0.4959507  0.5152530  0.4887753

 Al 
  0.4828486  0.7616764  0.7657764

 Al 
  0.7304106  0.5012066  0.7428828

 Al 
  0.7395698  0.7596876  0.5073709

