32 
charge = 0 
 Al 
  0.9991931  0.0040246  0.9810232

 Al 
  0.0050493  0.2544651  0.2577979

 Al 
  0.2366937  0.0112680  0.2545864

 Al 
  0.2396070  0.2546792  0.9872840

 Al 
  0.5077026  0.0034627  0.0121888

 Al 
  0.5008131  0.2536694  0.2759467

 Al 
  0.7607086  0.9845107  0.2463405

 Al 
  0.7604574  0.2454359  0.0100997

 Al 
  0.0160339  0.5050604  0.0111727

 Al 
  0.0020284  0.7194013  0.2458653

 Al 
  0.2537820  0.4956463  0.2407195

 Al 
  0.2440263  0.7524293  0.0063833

 Al 
  0.0064588  0.9927640  0.4965534

 Al 
  0.9824439  0.2495545  0.7354129

 Al 
  0.2313586  0.0008638  0.7295443

 Al 
  0.2549552  0.2632234  0.5046458

 Al 
  0.9958950  0.5064898  0.5065257

 Al 
  0.0061296  0.7558784  0.7467130

 Al 
  0.2444310  0.4988862  0.7484753

 Al 
  0.2664583  0.7484493  0.5168370

 Al 
  0.5034788  0.4961487  0.0035568

 Al 
  0.5249109  0.7284429  0.2397616

 Al 
  0.7550926  0.4938815  0.2513551

 Al 
  0.7502673  0.7151057  0.0007710

 Al 
  0.4898656  0.0141552  0.5007227

 Al 
  0.4983503  0.2637283  0.7500743

 Al 
  0.7511695  0.0132580  0.7410153

 Al 
  0.7627197  0.2394622  0.4916774

 Al 
  0.4968207  0.5156057  0.4881602

 Al 
  0.4820182  0.7608113  0.7658433

 Al 
  0.7309378  0.5000248  0.7436822

 Al 
  0.7401403  0.7592137  0.5092644

