32 
charge = 0 
 Al 
  0.9979308  0.0043661  0.9814799

 Al 
  0.0057039  0.2545245  0.2571086

 Al 
  0.2365576  0.0114202  0.2547782

 Al 
  0.2399324  0.2558537  0.9881033

 Al 
  0.5078065  0.0036780  0.0127642

 Al 
  0.5009381  0.2524986  0.2755260

 Al 
  0.7610564  0.9841716  0.2459569

 Al 
  0.7616801  0.2452193  0.0100230

 Al 
  0.0154794  0.5044540  0.0095181

 Al 
  0.0026632  0.7200250  0.2452564

 Al 
  0.2545196  0.4964160  0.2411675

 Al 
  0.2435783  0.7518130  0.0058710

 Al 
  0.0047151  0.9920363  0.4978009

 Al 
  0.9812410  0.2501002  0.7339278

 Al 
  0.2303141  0.0014603  0.7294243

 Al 
  0.2541260  0.2640723  0.5049800

 Al 
  0.9956376  0.5078461  0.5055666

 Al 
  0.0069625  0.7556297  0.7476264

 Al 
  0.2452032  0.5000347  0.7481709

 Al 
  0.2656713  0.7484394  0.5152814

 Al 
  0.5038538  0.4948777  0.0038798

 Al 
  0.5254727  0.7270989  0.2413210

 Al 
  0.7557411  0.4940498  0.2507549

 Al 
  0.7490607  0.7163234  0.0000025

 Al 
  0.4894597  0.0146317  0.5007054

 Al 
  0.4985805  0.2629276  0.7498701

 Al 
  0.7513749  0.0131652  0.7415957

 Al 
  0.7634065  0.2395117  0.4923531

 Al 
  0.4977414  0.5158915  0.4876689

 Al 
  0.4812881  0.7599141  0.7658878

 Al 
  0.7315504  0.4988441  0.7444545

 Al 
  0.7407505  0.7587038  0.5111764

