32 
charge = 0 
 Al 
  0.0040184  0.0023180  0.9802200

 Al 
  0.0025976  0.2540307  0.2600738

 Al 
  0.2379598  0.0100094  0.2532857

 Al 
  0.2388978  0.2495594  0.9844636

 Al 
  0.5068227  0.0028117  0.0097755

 Al 
  0.5005148  0.2580479  0.2760049

 Al 
  0.7594525  0.9860106  0.2477377

 Al 
  0.7553760  0.2466672  0.0101096

 Al 
  0.0173296  0.5063425  0.0158866

 Al 
  0.9996671  0.7189904  0.2493354

 Al 
  0.2513378  0.4927763  0.2396800

 Al 
  0.2461908  0.7551532  0.0084290

 Al 
  0.0125872  0.9955076  0.4911787

 Al 
  0.9878447  0.2482080  0.7417900

 Al 
  0.2364648  0.9993726  0.7312522

 Al 
  0.2574439  0.2599438  0.5033946

 Al 
  0.9970125  0.5011967  0.5102507

 Al 
  0.0020902  0.7560418  0.7433246

 Al 
  0.2414893  0.4948332  0.7498738

 Al 
  0.2685251  0.7484159  0.5212168

 Al 
  0.5012499  0.5004183  0.0020717

 Al 
  0.5212836  0.7350020  0.2342495

 Al 
  0.7525976  0.4925635  0.2542387

 Al 
  0.7557237  0.7119016  0.0029937

 Al 
  0.4919051  0.0116170  0.5009591

 Al 
  0.4974407  0.2661972  0.7507562

 Al 
  0.7497302  0.0128843  0.7392419

 Al 
  0.7593634  0.2397641  0.4891911

 Al 
  0.4936996  0.5139176  0.4912170

 Al 
  0.4858695  0.7639882  0.7654683

 Al 
  0.7293822  0.5046545  0.7403928

 Al 
  0.7381318  0.7608534  0.5019368

