32 
charge = 0 
 Al 
  0.0050963  0.0018167  0.9802794

 Al 
  0.0020544  0.2538773  0.2604921

 Al 
  0.2384709  0.0095503  0.2528254

 Al 
  0.2388855  0.2482328  0.9839241

 Al 
  0.5065083  0.0027288  0.0091629

 Al 
  0.5004789  0.2590095  0.2756126

 Al 
  0.7591741  0.9864227  0.2480088

 Al 
  0.7541050  0.2470435  0.0100342

 Al 
  0.0174348  0.5063524  0.0165474

 Al 
  0.9991560  0.7194000  0.2504542

 Al 
  0.2508898  0.4921378  0.2396305

 Al 
  0.2467935  0.7558549  0.0089129

 Al 
  0.0138570  0.9961314  0.4898408

 Al 
  0.9892406  0.2480620  0.7433988

 Al 
  0.2379127  0.9992191  0.7319502

 Al 
  0.2578325  0.2591728  0.5031174

 Al 
  0.9973046  0.4999418  0.5111121

 Al 
  0.0009529  0.7558982  0.7425622

 Al 
  0.2408148  0.4940077  0.7502624

 Al 
  0.2687503  0.7483738  0.5218232

 Al 
  0.5005284  0.5012611  0.0016682

 Al 
  0.5200683  0.7368385  0.2331234

 Al 
  0.7519851  0.4921204  0.2550592

 Al 
  0.7571865  0.7115316  0.0033328

 Al 
  0.4925004  0.0108683  0.5010297

 Al 
  0.4972365  0.2666118  0.7508898

 Al 
  0.7492637  0.0126318  0.7389312

 Al 
  0.7584365  0.2399448  0.4887048

 Al 
  0.4930721  0.5134164  0.4921823

 Al 
  0.4870378  0.7646478  0.7653396

 Al 
  0.7292213  0.5057472  0.7395500

 Al 
  0.7377506  0.7611480  0.5002388

