32 
charge = 0 
 Al 
  0.0045666  0.0020704  0.9802374

 Al 
  0.0023217  0.2539565  0.2602916

 Al 
  0.2382048  0.0097854  0.2530617

 Al 
  0.2388830  0.2488973  0.9841840

 Al 
  0.5066692  0.0027660  0.0094698

 Al 
  0.5004963  0.2585379  0.2758292

 Al 
  0.7593114  0.9862148  0.2478776

 Al 
  0.7547399  0.2468529  0.0100762

 Al 
  0.0173915  0.5063635  0.0162430

 Al 
  0.9994072  0.7191711  0.2498837

 Al 
  0.2511051  0.4924521  0.2396441

 Al 
  0.2464903  0.7555047  0.0086728

 Al 
  0.0132357  0.9958232  0.4905054

 Al 
  0.9885439  0.2481263  0.7425969

 Al 
  0.2371826  0.9992847  0.7315888

 Al 
  0.2576506  0.2595552  0.5032536

 Al 
  0.9971586  0.5005656  0.5106864

 Al 
  0.0015259  0.7559774  0.7429397

 Al 
  0.2411477  0.4944087  0.7500668

 Al 
  0.2686525  0.7483961  0.5215447

 Al 
  0.5008972  0.5008514  0.0018700

 Al 
  0.5206896  0.7359141  0.2336728

 Al 
  0.7522907  0.4923457  0.2546446

 Al 
  0.7564527  0.7116950  0.0031731

 Al 
  0.4921996  0.0112470  0.5009950

 Al 
  0.4973368  0.2664150  0.7508255

 Al 
  0.7495000  0.0127642  0.7390810

 Al 
  0.7589018  0.2398495  0.4889387

 Al 
  0.4933790  0.5136701  0.4916922

 Al 
  0.4864437  0.7643260  0.7654052

 Al 
  0.7292906  0.5052052  0.7399708

 Al 
  0.7379350  0.7610069  0.5010792

