32 
charge = 0 
 Al 
  0.0101047  0.9978479  0.9830145

 Al 
  0.9994270  0.2525073  0.2614128

 Al 
  0.2438741  0.0056235  0.2486511

 Al 
  0.2406688  0.2398446  0.9827273

 Al 
  0.5039602  0.0033686  0.0051223

 Al 
  0.5001819  0.2634449  0.2694186

 Al 
  0.7575863  0.9896156  0.2484902

 Al 
  0.7462044  0.2499629  0.0087322

 Al 
  0.0164126  0.5036335  0.0164113

 Al 
  0.9969247  0.7260532  0.2595800

 Al 
  0.2496547  0.4889337  0.2414348

 Al 
  0.2507760  0.7599055  0.0114673

 Al 
  0.0194495  0.9994183  0.4826580

 Al 
  0.9975397  0.2482909  0.7530357

 Al 
  0.2481573  0.9998948  0.7382766

 Al 
  0.2581679  0.2546594  0.5016905

 Al 
  0.9992674  0.4925313  0.5155846

 Al 
  0.9930201  0.7538340  0.7383545

 Al 
  0.2372890  0.4907888  0.7531038

 Al 
  0.2674397  0.7477340  0.5213863

 Al 
  0.4947973  0.5048302  0.9990038

 Al 
  0.5100131  0.7494035  0.2286347

 Al 
  0.7478293  0.4892196  0.2608695

 Al 
  0.7665920  0.7129424  0.0039862

 Al 
  0.4968665  0.0055331  0.5010841

 Al 
  0.4964383  0.2673395  0.7513811

 Al 
  0.7460039  0.0099785  0.7380278

 Al 
  0.7522474  0.2417653  0.4878187

 Al 
  0.4902802  0.5099809  0.4993911

 Al 
  0.4962836  0.7674162  0.7641936

 Al 
  0.7301557  0.5118596  0.7342731

 Al 
  0.7363942  0.7618348  0.4907839

