32 
charge = 0 
 Al 
  0.0098584  0.9981969  0.9826692

 Al 
  0.9995706  0.2526323  0.2614598

 Al 
  0.2433295  0.0059651  0.2490322

 Al 
  0.2404077  0.2404559  0.9826543

 Al 
  0.5041718  0.0032338  0.0054428

 Al 
  0.5002252  0.2632258  0.2701030

 Al 
  0.7576989  0.9893297  0.2485446

 Al 
  0.7467823  0.2497116  0.0088869

 Al 
  0.0165809  0.5039961  0.0166489

 Al 
  0.9970212  0.7253453  0.2587954

 Al 
  0.2496572  0.4891169  0.2411688

 Al 
  0.2504839  0.7596493  0.0113187

 Al 
  0.0191748  0.9992141  0.4830776

 Al 
  0.9969816  0.2482290  0.7523625

 Al 
  0.2473405  0.9997624  0.7377135

 Al 
  0.2582632  0.2549812  0.5017809

 Al 
  0.9991127  0.4930585  0.5153223

 Al 
  0.9936414  0.7540369  0.7386392

 Al 
  0.2374969  0.4909027  0.7528699

 Al 
  0.2677021  0.7477996  0.5216623

 Al 
  0.4952787  0.5046532  0.9992018

 Al 
  0.5108844  0.7484332  0.2288043

 Al 
  0.7481647  0.4894015  0.2604141

 Al 
  0.7659113  0.7126194  0.0040048

 Al 
  0.4965150  0.0059539  0.5011212

 Al 
  0.4964569  0.2673989  0.7513650

 Al 
  0.7462440  0.0102260  0.7380328

 Al 
  0.7527202  0.2415994  0.4877271

 Al 
  0.4904287  0.5102483  0.4988082

 Al 
  0.4954854  0.7672986  0.7643025

 Al 
  0.7299725  0.5114611  0.7346493

 Al 
  0.7364376  0.7618583  0.4914150

