32 
charge = 0 
 Al 
  0.0092929  0.9988738  0.9820417

 Al 
  0.9998886  0.2528736  0.2614932

 Al 
  0.2423024  0.0066358  0.2497711

 Al 
  0.2399510  0.2417021  0.9825999

 Al 
  0.5045938  0.0030122  0.0060752

 Al 
  0.5002970  0.2627221  0.2713752

 Al 
  0.7579291  0.9887815  0.2486040

 Al 
  0.7479568  0.2492228  0.0091666

 Al 
  0.0168779  0.5046495  0.0170301

 Al 
  0.9972551  0.7240100  0.2572534

 Al 
  0.2497030  0.4895178  0.2406997

 Al 
  0.2498849  0.7591010  0.0109933

 Al 
  0.0185511  0.9987798  0.4839946

 Al 
  0.9958146  0.2481164  0.7509777

 Al 
  0.2457131  0.9995310  0.7366133

 Al 
  0.2583993  0.2556359  0.5019702

 Al 
  0.9988058  0.4941327  0.5147530

 Al 
  0.9948864  0.7544280  0.7392270

 Al 
  0.2379499  0.4911972  0.7524058

 Al 
  0.2681526  0.7479258  0.5221029

 Al 
  0.4962304  0.5042585  0.9996052

 Al 
  0.5125922  0.7464841  0.2292312

 Al 
  0.7488268  0.4898012  0.2594995

 Al 
  0.7645154  0.7120737  0.0040159

 Al 
  0.4958146  0.0067967  0.5011695

 Al 
  0.4965200  0.2674632  0.7513230

 Al 
  0.7467365  0.0107062  0.7380748

 Al 
  0.7536718  0.2412764  0.4876281

 Al 
  0.4907529  0.5107829  0.4976474

 Al 
  0.4939248  0.7670165  0.7645092

 Al 
  0.7296594  0.5106232  0.7354240

 Al 
  0.7365502  0.7618682  0.4927231

