32 
charge = 0 
 Al 
  0.0070306  0.0007264  0.9806990

 Al 
  0.0010754  0.2535196  0.2611170

 Al 
  0.2397418  0.0084934  0.2517462

 Al 
  0.2390773  0.2455831  0.9830986

 Al 
  0.5057992  0.0026905  0.0079365

 Al 
  0.5004208  0.2607247  0.2743614

 Al 
  0.7586506  0.9872989  0.2484122

 Al 
  0.7515977  0.2478603  0.0097879

 Al 
  0.0174150  0.5060084  0.0172727

 Al 
  0.9982575  0.7207712  0.2529541

 Al 
  0.2502091  0.4909720  0.2397951

 Al 
  0.2480298  0.7572274  0.0098213

 Al 
  0.0160611  0.9972860  0.4872939

 Al 
  0.9919831  0.2479506  0.7465435

 Al 
  0.2409410  0.9991448  0.7336085

 Al 
  0.2583263  0.2576976  0.5026137

 Al 
  0.9978974  0.4975274  0.5127135

 Al 
  0.9985830  0.7554366  0.7411391

 Al 
  0.2395599  0.4926167  0.7510829

 Al 
  0.2688518  0.7482389  0.5224642

 Al 
  0.4989283  0.5026867  0.0008428

 Al 
  0.5173296  0.7406378  0.2312150

 Al 
  0.7507487  0.4911749  0.2567831

 Al 
  0.7601455  0.7112878  0.0037869

 Al 
  0.4937701  0.0092891  0.5011435

 Al 
  0.4968813  0.2671935  0.7511089

 Al 
  0.7482687  0.0119784  0.7384560

 Al 
  0.7565405  0.2404052  0.4879808

 Al 
  0.4919905  0.5123781  0.4942688

 Al 
  0.4895921  0.7657839  0.7650438

 Al 
  0.7291582  0.5078239  0.7378682

 Al 
  0.7371355  0.7615873  0.4970360

