32 
charge = 0 
 Al 
  0.0095874  0.9985384  0.9823449

 Al 
  0.9997253  0.2527548  0.2614871

 Al 
  0.2428048  0.0063029  0.2494060

 Al 
  0.2401688  0.2410747  0.9826122

 Al 
  0.5043834  0.0031149  0.0057609

 Al 
  0.5002636  0.2629845  0.2707552

 Al 
  0.7578140  0.9890513  0.2485818

 Al 
  0.7473665  0.2494654  0.0090317

 Al 
  0.0167368  0.5043339  0.0168568

 Al 
  0.9971313  0.7246634  0.2580194

 Al 
  0.2496733  0.4893124  0.2409237

 Al 
  0.2501869  0.7593807  0.0111616

 Al 
  0.0188753  0.9990013  0.4835231

 Al 
  0.9964061  0.2481696  0.7516769

 Al 
  0.2465249  0.9996411  0.7371578

 Al 
  0.2583412  0.2553067  0.5018737

 Al 
  0.9989592  0.4935931  0.5150450

 Al 
  0.9942639  0.7542349  0.7389300

 Al 
  0.2377172  0.4910388  0.7526360

 Al 
  0.2679409  0.7478640  0.5219011

 Al 
  0.4957564  0.5044627  0.9994023

 Al 
  0.5117445  0.7474593  0.2290035

 Al 
  0.7484976  0.4895958  0.2599574

 Al 
  0.7652183  0.7123298  0.0040147

 Al 
  0.4961648  0.0063759  0.5011497

 Al 
  0.4964853  0.2674410  0.7513465

 Al 
  0.7464878  0.0104685  0.7380489

 Al 
  0.7531954  0.2414373  0.4876627

 Al 
  0.4905859  0.5105156  0.4982266

 Al 
  0.4946983  0.7671662  0.7644077

 Al 
  0.7298067  0.5110490  0.7350342

 Al 
  0.7364895  0.7618695  0.4920610

