32 
charge = 0 
 Al 
  0.0078746  0.0001386  0.9810542

 Al 
  0.0006411  0.2533179  0.2613200

 Al 
  0.2405079  0.0079055  0.2511324

 Al 
  0.2392877  0.2442713  0.9828276

 Al 
  0.5054119  0.0027437  0.0073202

 Al 
  0.5003898  0.2614697  0.2735100

 Al 
  0.7584030  0.9877679  0.2485347

 Al 
  0.7503663  0.2482959  0.0096159

 Al 
  0.0172986  0.5056618  0.0173568

 Al 
  0.9978763  0.7217068  0.2543228

 Al 
  0.2499752  0.4904460  0.2400104

 Al 
  0.2486535  0.7578833  0.0102408

 Al 
  0.0169979  0.9978169  0.4861121

 Al 
  0.9933060  0.2479692  0.7480645

 Al 
  0.2425078  0.9992141  0.7345515

 Al 
  0.2584352  0.2569922  0.5023848

 Al 
  0.9981981  0.4963665  0.5134449

 Al 
  0.9973640  0.7551359  0.7404745

 Al 
  0.2389845  0.4920548  0.7515123

 Al 
  0.2687305  0.7481474  0.5225125

 Al 
  0.4980620  0.5032808  0.0004282

 Al 
  0.5158247  0.7425771  0.2304366

 Al 
  0.7501188  0.4906997  0.2576778

 Al 
  0.7616219  0.7114017  0.0039156

 Al 
  0.4944372  0.0084699  0.5011769

 Al 
  0.4967353  0.2673630  0.7511942

 Al 
  0.7477563  0.0115873  0.7382865

 Al 
  0.7555839  0.2406750  0.4877593

 Al 
  0.4915301  0.5118484  0.4953703

 Al 
  0.4909732  0.7662579  0.7648792

 Al 
  0.7292486  0.5088015  0.7370390

 Al 
  0.7368979  0.7617321  0.4955336

