32 
charge = 0 
 Al 
  0.0106888  0.9967613  0.9841691

 Al 
  0.9990508  0.2521187  0.2611480

 Al 
  0.2456227  0.0045802  0.2474754

 Al 
  0.2415784  0.2380724  0.9831295

 Al 
  0.5033290  0.0038649  0.0041458

 Al 
  0.5000136  0.2639721  0.2671860

 Al 
  0.7572484  0.9905203  0.2482290

 Al 
  0.7445077  0.2507425  0.0082088

 Al 
  0.0158321  0.5024219  0.0155289

 Al 
  0.9967167  0.7283117  0.2619722

 Al 
  0.2497166  0.4884498  0.2423469

 Al 
  0.2516163  0.7605935  0.0118422

 Al 
  0.0201339  0.9999864  0.4815690

 Al 
  0.9991003  0.2484939  0.7549701

 Al 
  0.2506163  0.0003354  0.7400030

 Al 
  0.2577806  0.2537152  0.5014319

 Al 
  0.9997277  0.4909918  0.5162739

 Al 
  0.9911737  0.7532139  0.7375316

 Al 
  0.2367420  0.4905809  0.7538216

 Al 
  0.2665041  0.7475323  0.5203554

 Al 
  0.4933432  0.5052819  0.9984246

 Al 
  0.5073462  0.7522796  0.2283043

 Al 
  0.7468108  0.4887543  0.2622147

 Al 
  0.7685486  0.7141057  0.0038958

 Al 
  0.4979135  0.0042807  0.5009146

 Al 
  0.4964296  0.2670511  0.7514083

 Al 
  0.7453220  0.0092186  0.7380773

 Al 
  0.7508415  0.2422714  0.4882642

 Al 
  0.4898866  0.5091802  0.5011348

 Al 
  0.4987352  0.7676662  0.7638434

 Al 
  0.7308066  0.5129684  0.7331939

 Al 
  0.7363175  0.7616863  0.4889894

