32 
charge = 0 
 Al 
  0.0103250  0.9974927  0.9833795

 Al 
  0.9992921  0.2523798  0.2613460

 Al 
  0.2444384  0.0052782  0.2482637

 Al 
  0.2409509  0.2392431  0.9828301

 Al 
  0.5037486  0.0035184  0.0048005

 Al 
  0.5001324  0.2636417  0.2687033

 Al 
  0.7574724  0.9899089  0.2484196

 Al 
  0.7456314  0.2502190  0.0085676

 Al 
  0.0162306  0.5032511  0.0161440

 Al 
  0.9968405  0.7267846  0.2603720

 Al 
  0.2496634  0.4887605  0.2417195

 Al 
  0.2510618  0.7601493  0.0116034

 Al 
  0.0197008  0.9996151  0.4822670

 Al 
  0.9980793  0.2483578  0.7536941

 Al 
  0.2489765  0.0000347  0.7388471

 Al 
  0.2580541  0.2543414  0.5016014

 Al 
  0.9994208  0.4920115  0.5158309

 Al 
  0.9924014  0.7536298  0.7380748

 Al 
  0.2370922  0.4906972  0.7533414

 Al 
  0.2671514  0.7476672  0.5210769

 Al 
  0.4943134  0.5049936  0.9988082

 Al 
  0.5091320  0.7503688  0.2284949

 Al 
  0.7474915  0.4890500  0.2613225

 Al 
  0.7672590  0.7132988  0.0039614

 Al 
  0.4972180  0.0051136  0.5010371

 Al 
  0.4964272  0.2672615  0.7513935

 Al 
  0.7457700  0.0097285  0.7380328

 Al 
  0.7517759  0.2419323  0.4879387

 Al 
  0.4901416  0.5097149  0.4999728

 Al 
  0.4970917  0.7675165  0.7640810

 Al 
  0.7303562  0.5122444  0.7339043

 Al 
  0.7363608  0.7617977  0.4901700

