32 
charge = 0 
 Al 
  0.0108311  0.9963876  0.9845923

 Al 
  0.9989444  0.2519838  0.2610180

 Al 
  0.2462415  0.0042288  0.2470769

 Al 
  0.2419237  0.2375043  0.9833263

 Al 
  0.5031224  0.0040617  0.0038129

 Al 
  0.4999443  0.2641033  0.2663866

 Al 
  0.7571370  0.9908371  0.2481090

 Al 
  0.7439570  0.2510099  0.0080145

 Al 
  0.0156156  0.5019789  0.0151849

 Al 
  0.9966759  0.7291013  0.2627766

 Al 
  0.2497587  0.4883125  0.2426872

 Al 
  0.2518823  0.7607928  0.0119412

 Al 
  0.0203171  0.0001596  0.4812633

 Al 
  0.9995792  0.2485644  0.7555864

 Al 
  0.2514356  0.0004950  0.7405859

 Al 
  0.2576209  0.2534058  0.5013489

 Al 
  0.9998800  0.4904918  0.5164707

 Al 
  0.9905685  0.7530048  0.7372667

 Al 
  0.2365885  0.4905562  0.7540629

 Al 
  0.2661465  0.7474655  0.5199483

 Al 
  0.4928580  0.5054081  0.9982365

 Al 
  0.5064452  0.7532226  0.2282523

 Al 
  0.7464680  0.4886293  0.2626528

 Al 
  0.7691674  0.7145550  0.0038562

 Al 
  0.4982575  0.0038699  0.5008366

 Al 
  0.4964445  0.2669200  0.7514108

 Al 
  0.7451092  0.0089612  0.7381169

 Al 
  0.7503775  0.2424410  0.4884684

 Al 
  0.4897703  0.5089129  0.5017128

 Al 
  0.4995669  0.7677157  0.7637171

 Al 
  0.7310554  0.5133075  0.7328536

 Al 
  0.7363088  0.7616120  0.4884226

