32 
charge = 0 
 Al 
  0.0111492  0.9944446  0.9869549

 Al 
  0.9985471  0.2512895  0.2600663

 Al 
  0.2495409  0.0024801  0.2450943

 Al 
  0.2439483  0.2348894  0.9847879

 Al 
  0.5021583  0.0052658  0.0020952

 Al 
  0.4994889  0.2644287  0.2620452

 Al 
  0.7565801  0.9925363  0.2472675

 Al 
  0.7413358  0.2523984  0.0068907

 Al 
  0.0143854  0.4995099  0.0131912

 Al 
  0.9967093  0.7332471  0.2667826

 Al 
  0.2500817  0.4878125  0.2446376

 Al 
  0.2530791  0.7615341  0.0122011

 Al 
  0.0209086  0.0009121  0.4801953

 Al 
  0.0016336  0.2488874  0.7584414

 Al 
  0.2554874  0.0013242  0.7435028

 Al 
  0.2566395  0.2519058  0.5009566

 Al 
  0.0006274  0.4881070  0.5171836

 Al 
  0.9876627  0.7519826  0.7360205

 Al 
  0.2360601  0.4907604  0.7552906

 Al 
  0.2640637  0.7471449  0.5174868

 Al 
  0.4904720  0.5058846  0.9973541

 Al 
  0.5019318  0.7577707  0.2284392

 Al 
  0.7447564  0.4882716  0.2647319

 Al 
  0.7719643  0.7172442  0.0036211

 Al 
  0.4998985  0.0018799  0.5002834

 Al 
  0.4966462  0.2660190  0.7513725

 Al 
  0.7441946  0.0076816  0.7384944

 Al 
  0.7481164  0.2432936  0.4898879

 Al 
  0.4892815  0.5075825  0.5045171

 Al 
  0.5037585  0.7677095  0.7630352

 Al 
  0.7325269  0.5147418  0.7313314

 Al 
  0.7363670  0.7610601  0.4858386

