32 
charge = 0 
 Al 
  0.0111022  0.9952341  0.9859636

 Al 
  0.9986795  0.2515717  0.2605069

 Al 
  0.2481845  0.0031743  0.2458789

 Al 
  0.2430808  0.2358868  0.9841085

 Al 
  0.5025271  0.0047411  0.0027944

 Al 
  0.4996931  0.2643644  0.2638421

 Al 
  0.7568029  0.9918346  0.2476511

 Al 
  0.7423556  0.2518341  0.0073697

 Al 
  0.0149040  0.5005433  0.0140364

 Al 
  0.9966474  0.7315591  0.2651911

 Al 
  0.2499332  0.4879734  0.2438109

 Al 
  0.2526298  0.7612915  0.0121479

 Al 
  0.0207341  0.0006336  0.4805294

 Al 
  0.0008824  0.2487662  0.7573462

 Al 
  0.2538798  0.0009900  0.7423407

 Al 
  0.2570652  0.2524974  0.5011101

 Al 
  0.0003329  0.4890377  0.5169546

 Al 
  0.9887951  0.7523835  0.7365044

 Al 
  0.2362210  0.4906131  0.7547980

 Al 
  0.2649522  0.7472675  0.5185498

 Al 
  0.4914138  0.5057237  0.9976957

 Al 
  0.5037313  0.7559898  0.2282758

 Al 
  0.7454383  0.4883595  0.2639263

 Al 
  0.7709099  0.7160834  0.0037189

 Al 
  0.4992612  0.0026595  0.5005396

 Al 
  0.4965410  0.2664262  0.7513984

 Al 
  0.7445275  0.0081890  0.7383063

 Al 
  0.7490087  0.2429533  0.4892443

 Al 
  0.4894609  0.5081135  0.5034157

 Al 
  0.5020828  0.7677627  0.7633186

 Al 
  0.7318945  0.5142221  0.7319019

 Al 
  0.7363237  0.7613150  0.4868224

