32 
charge = 0 
 Al 
  0.0105193  0.9971301  0.9837644

 Al 
  0.9991671  0.2522511  0.2612569

 Al 
  0.2450213  0.0049304  0.2478714

 Al 
  0.2412541  0.2386516  0.9829637

 Al 
  0.5035370  0.0036830  0.0044750

 Al 
  0.5000755  0.2638174  0.2679583

 Al 
  0.7573610  0.9902109  0.2483330

 Al 
  0.7450658  0.2504789  0.0083931

 Al 
  0.0160376  0.5028464  0.0158482

 Al 
  0.9967712  0.7275382  0.2611702

 Al 
  0.2496844  0.4885996  0.2420239

 Al 
  0.2513428  0.7603782  0.0117296

 Al 
  0.0199285  0.9998045  0.4819031

 Al 
  0.9985991  0.2484246  0.7543401

 Al 
  0.2497970  0.0001819  0.7394226

 Al 
  0.2579254  0.2540270  0.5015160

 Al 
  0.9995743  0.4914979  0.5160611

 Al 
  0.9917851  0.7534219  0.7378001

 Al 
  0.2369103  0.4906279  0.7535803

 Al 
  0.2668395  0.7476004  0.5207329

 Al 
  0.4938283  0.5051433  0.9986139

 Al 
  0.5082422  0.7513279  0.2283847

 Al 
  0.7471524  0.4888941  0.2617705

 Al 
  0.7679112  0.7136862  0.0039317

 Al 
  0.4975670  0.0046965  0.5009814

 Al 
  0.4964234  0.2671650  0.7514034

 Al 
  0.7455423  0.0094748  0.7380501

 Al 
  0.7513069  0.2421006  0.4880872

 Al 
  0.4900104  0.5094476  0.5005557

 Al 
  0.4979098  0.7675994  0.7639634

 Al 
  0.7305727  0.5126145  0.7335441

 Al 
  0.7363348  0.7617482  0.4895711

