32 
charge = 0 
 Al 
  0.0110935  0.9936451  0.9879969

 Al 
  0.9984456  0.2510061  0.2595503

 Al 
  0.2509282  0.0017982  0.2443369

 Al 
  0.2448852  0.2339674  0.9855898

 Al 
  0.5018192  0.0058413  0.0013786

 Al 
  0.4992550  0.2644077  0.2601851

 Al 
  0.7563574  0.9932639  0.2468232

 Al 
  0.7403619  0.2529739  0.0063734

 Al 
  0.0138359  0.4984246  0.0123014

 Al 
  0.9968380  0.7349562  0.2683444

 Al 
  0.2502475  0.4877048  0.2455188

 Al 
  0.2534837  0.7616987  0.0121776

 Al 
  0.0210051  0.0011633  0.4799861

 Al 
  0.0022870  0.2489889  0.7594735

 Al 
  0.2570702  0.0016484  0.7446451

 Al 
  0.2561804  0.2513242  0.5008044

 Al 
  0.0009108  0.4872086  0.5173358

 Al 
  0.9865799  0.7515965  0.7355564

 Al 
  0.2359685  0.4909930  0.7557856

 Al 
  0.2631120  0.7470336  0.5163346

 Al 
  0.4895537  0.5060096  0.9970299

 Al 
  0.5001559  0.7594859  0.2287201

 Al 
  0.7440820  0.4882605  0.2654968

 Al 
  0.7729234  0.7185102  0.0035246

 Al 
  0.5005012  0.0011287  0.4999827

 Al 
  0.4967836  0.2655524  0.7513329

 Al 
  0.7439112  0.0071865  0.7387332

 Al 
  0.7472452  0.2436303  0.4906255

 Al 
  0.4891206  0.5070516  0.5055789

 Al 
  0.5054156  0.7675895  0.7627395

 Al 
  0.7332125  0.5151849  0.7308190

 Al 
  0.7364314  0.7607618  0.4849203

