32 
charge = 0 
 Al 
  0.0096542  0.9900475  0.9931105

 Al 
  0.9983120  0.2497438  0.2564031

 Al 
  0.2571940  0.9990929  0.2415710

 Al 
  0.2496980  0.2309539  0.9905623

 Al 
  0.5008378  0.0088325  0.9979914

 Al 
  0.4978751  0.2633285  0.2514628

 Al 
  0.7553277  0.9968108  0.2442057

 Al 
  0.7366764  0.2556767  0.0036261

 Al 
  0.0110663  0.4932033  0.0081234

 Al 
  0.9982451  0.7424731  0.2746411

 Al 
  0.2510309  0.4879214  0.2499604

 Al 
  0.2546310  0.7613918  0.0109537

 Al 
  0.0205745  0.0020655  0.4806371

 Al 
  0.0040283  0.2490087  0.7633186

 Al 
  0.2636540  0.0027907  0.7492773

 Al 
  0.2539057  0.2487884  0.5001324

 Al 
  0.0020271  0.4836258  0.5170128

 Al 
  0.9825627  0.7501832  0.7337063

 Al 
  0.2364611  0.4930152  0.7579823

 Al 
  0.2583139  0.7467279  0.5103819

 Al 
  0.4858720  0.5062386  0.9958406

 Al 
  0.4928630  0.7661539  0.2313499

 Al 
  0.7412616  0.4891676  0.2682800

 Al 
  0.7759665  0.7253193  0.0032498

 Al 
  0.5026583  0.9981857  0.4981053

 Al 
  0.4977142  0.2628645  0.7509504

 Al 
  0.7433790  0.0052547  0.7403940

 Al 
  0.7436241  0.2450337  0.4948740

 Al 
  0.4885303  0.5047015  0.5096703

 Al 
  0.5122717  0.7662838  0.7612705

 Al 
  0.7368744  0.5161254  0.7293438

 Al 
  0.7369066  0.7589884  0.4816148

