32 
charge = 0 
 Al 
  0.0110267  0.9932429  0.9885352

 Al 
  0.9984073  0.2508638  0.2592644

 Al 
  0.2516299  0.0014653  0.2439718

 Al 
  0.2453765  0.2335379  0.9860353

 Al 
  0.5016633  0.0061445  0.0010160

 Al 
  0.4991263  0.2643644  0.2592359

 Al 
  0.7562460  0.9936377  0.2465806

 Al 
  0.7398941  0.2532659  0.0061012

 Al 
  0.0135513  0.4978677  0.0118447

 Al 
  0.9969271  0.7358126  0.2691104

 Al 
  0.2503341  0.4876726  0.2459767

 Al 
  0.2536669  0.7617507  0.0121343

 Al 
  0.0210249  0.0012796  0.4799304

 Al 
  0.0025766  0.2490298  0.7599661

 Al 
  0.2578486  0.0018056  0.7452044

 Al 
  0.2559415  0.2510371  0.5007289

 Al 
  0.0010482  0.4867729  0.5173816

 Al 
  0.9860613  0.7514121  0.7353312

 Al 
  0.2359500  0.4911403  0.7560331

 Al 
  0.2626169  0.7469828  0.5157282

 Al 
  0.4891045  0.5060616  0.9968752

 Al 
  0.4992822  0.7603176  0.2289033

 Al 
  0.7437491  0.4882840  0.2658606

 Al 
  0.7733652  0.7191810  0.0034776

 Al 
  0.5007883  0.0007636  0.4998144

 Al 
  0.4968640  0.2652987  0.7513069

 Al 
  0.7437899  0.0069452  0.7388718

 Al 
  0.7468170  0.2437973  0.4910277

 Al 
  0.4890463  0.5067880  0.5060925

 Al 
  0.5062324  0.7675053  0.7625860

 Al 
  0.7335751  0.5153755  0.7305851

 Al 
  0.7364710  0.7605972  0.4844859

