32 
charge = 0 
 Al 
  0.0106802  0.9920326  0.9902035

 Al 
  0.9983293  0.2504381  0.2583053

 Al 
  0.2537436  0.0005062  0.2429508

 Al 
  0.2469284  0.2323821  0.9875439

 Al 
  0.5012574  0.0071123  0.9999035

 Al 
  0.4987006  0.2641169  0.2563413

 Al 
  0.7559081  0.9947899  0.2457737

 Al 
  0.7385711  0.2541533  0.0052312

 Al 
  0.0126603  0.4961475  0.0104475

 Al 
  0.9972984  0.7383682  0.2713220

 Al 
  0.2506027  0.4876566  0.2474135

 Al 
  0.2541359  0.7617804  0.0118719

 Al 
  0.0209792  0.0015977  0.4799540

 Al 
  0.0032969  0.2491028  0.7613447

 Al 
  0.2601245  0.0022388  0.7468281

 Al 
  0.2551940  0.2501856  0.5005037

 Al 
  0.0014418  0.4855205  0.5173977

 Al 
  0.9846035  0.7508960  0.7346852

 Al 
  0.2360056  0.4917021  0.7567744

 Al 
  0.2610613  0.7468554  0.5138100

 Al 
  0.4878125  0.5061705  0.9964432

 Al 
  0.4967403  0.7626863  0.2296223

 Al 
  0.7427763  0.4884721  0.2668779

 Al 
  0.7745372  0.7213319  0.0033563

 Al 
  0.5015816  0.9997228  0.4992463

 Al 
  0.4971425  0.2644646  0.7512066

 Al 
  0.7435152  0.0062571  0.7393582

 Al 
  0.7455695  0.2442837  0.4923494

 Al 
  0.4888397  0.5059985  0.5075516

 Al 
  0.5086159  0.7671588  0.7621120

 Al 
  0.7347322  0.5158235  0.7299837

 Al 
  0.7366133  0.7600502  0.4832855

