32 
charge = 0 
 Al 
  0.0109351  0.9928395  0.9890835

 Al 
  0.9983751  0.2507215  0.2589612

 Al 
  0.2523340  0.0011386  0.2436191

 Al 
  0.2458814  0.2331295  0.9865106

 Al 
  0.5015173  0.0064588  0.0006485

 Al 
  0.4989914  0.2643013  0.2582781

 Al 
  0.7561334  0.9940164  0.2463244

 Al 
  0.7394386  0.2535592  0.0058190

 Al 
  0.0132605  0.4973009  0.0113819

 Al 
  0.9970336  0.7366677  0.2698629

 Al 
  0.2504232  0.4876528  0.2464457

 Al 
  0.2538364  0.7617816  0.0120699

 Al 
  0.0210274  0.0013898  0.4799057

 Al 
  0.0028414  0.2490632  0.7604413

 Al 
  0.2586184  0.0019566  0.7457564

 Al 
  0.2556965  0.2507512  0.5006534

 Al 
  0.0011831  0.4863460  0.5174076

 Al 
  0.9855576  0.7512338  0.7351109

 Al 
  0.2359500  0.4913074  0.7562806

 Al 
  0.2621083  0.7469358  0.5151032

 Al 
  0.4886652  0.5061049  0.9967266

 Al 
  0.4984209  0.7611282  0.2291161

 Al 
  0.7434199  0.4883273  0.2662133

 Al 
  0.7737822  0.7198753  0.0034342

 Al 
  0.5010643  0.0004084  0.4996362

 Al 
  0.4969506  0.2650327  0.7512772

 Al 
  0.7436822  0.0067101  0.7390216

 Al 
  0.7463950  0.2439619  0.4914497

 Al 
  0.4889746  0.5065244  0.5065925

 Al 
  0.5070393  0.7674051  0.7624313

 Al 
  0.7339488  0.5155463  0.7303673

 Al 
  0.7365155  0.7604240  0.4840689

