32 
charge = 0 
 Al 
  0.0078226  0.9878013  0.9967019

 Al 
  0.9984110  0.2489369  0.2537053

 Al 
  0.2609809  0.9978318  0.2405821

 Al 
  0.2531224  0.2301483  0.9948604

 Al 
  0.5008613  0.0108868  0.9956351

 Al 
  0.4967613  0.2618435  0.2457477

 Al 
  0.7545691  0.9993936  0.2420487

 Al 
  0.7349797  0.2576061  0.0014752

 Al 
  0.0089699  0.4897097  0.0055171

 Al 
  0.9998676  0.7469630  0.2778204

 Al 
  0.2514319  0.4887357  0.2531644

 Al 
  0.2547250  0.7601901  0.0089921

 Al 
  0.0195906  0.0026471  0.4825145

 Al 
  0.0042436  0.2484407  0.7651713

 Al 
  0.2673581  0.0030716  0.7516893

 Al 
  0.2523873  0.2471140  0.4997092

 Al 
  0.0026224  0.4816643  0.5158730

 Al 
  0.9808549  0.7496151  0.7326766

 Al 
  0.2375910  0.4951376  0.7593399

 Al 
  0.2549168  0.7467106  0.5061185

 Al 
  0.4839525  0.5061940  0.9953431

 Al 
  0.4890080  0.7693728  0.2341901

 Al 
  0.7396478  0.4905859  0.2694050

 Al 
  0.7768205  0.7306396  0.0033649

 Al 
  0.5035221  0.9966895  0.4964816

 Al 
  0.4985162  0.2606950  0.7504690

 Al 
  0.7437862  0.0043389  0.7419608

 Al 
  0.7415103  0.2458084  0.4982748

 Al 
  0.4881627  0.5031892  0.5116492

 Al 
  0.5159856  0.7647814  0.7601480

 Al 
  0.7397332  0.5157170  0.7292300

 Al 
  0.7372865  0.7575380  0.4801421

