32 
charge = 0 
 Al 
  0.0093906  0.9896602  0.9937033

 Al 
  0.9983219  0.2496077  0.2559824

 Al 
  0.2578585  0.9988466  0.2413519

 Al 
  0.2502673  0.2307485  0.9912331

 Al 
  0.5007995  0.0091827  0.9976016

 Al 
  0.4976957  0.2631194  0.2504938

 Al 
  0.7552077  0.9972291  0.2438642

 Al 
  0.7363484  0.2559898  0.0032833

 Al 
  0.0107321  0.4926130  0.0076704

 Al 
  0.9984815  0.7432590  0.2752376

 Al 
  0.2511076  0.4880192  0.2504851

 Al 
  0.2546854  0.7612482  0.0106925

 Al 
  0.0204470  0.0021558  0.4808698

 Al 
  0.0041099  0.2489518  0.7636652

 Al 
  0.2643136  0.0028687  0.7497215

 Al 
  0.2536483  0.2485100  0.5000594

 Al 
  0.0021336  0.4832756  0.5168729

 Al 
  0.9822199  0.7500656  0.7335243

 Al 
  0.2366059  0.4933295  0.7582174

 Al 
  0.2577509  0.7467143  0.5096765

 Al 
  0.4855193  0.5062398  0.9957403

 Al 
  0.4921539  0.7667665  0.2317682

 Al 
  0.7409782  0.4893619  0.2685115

 Al 
  0.7761744  0.7261683  0.0032474

 Al 
  0.5028353  0.9979085  0.4978504

 Al 
  0.4978417  0.2625192  0.7508836

 Al 
  0.7434026  0.0050802  0.7406329

 Al 
  0.7432553  0.2451735  0.4954173

 Al 
  0.4884709  0.5044453  0.5100428

 Al 
  0.5129449  0.7660660  0.7610935

 Al 
  0.7373311  0.5161168  0.7292745

 Al 
  0.7369697  0.7587582  0.4813301

