32 
charge = 0 
 Al 
  0.0084946  0.9885278  0.9954965

 Al 
  0.9983677  0.2492042  0.2546495

 Al 
  0.2597780  0.9981907  0.2408235

 Al 
  0.2519838  0.2303017  0.9933580

 Al 
  0.5007821  0.0102186  0.9964259

 Al 
  0.4971400  0.2623979  0.2476214

 Al 
  0.7548327  0.9985124  0.2427949

 Al 
  0.7354710  0.2569489  0.0022177

 Al 
  0.0096926  0.4908581  0.0063536

 Al 
  0.9992748  0.7455287  0.2768712

 Al 
  0.2513155  0.4884040  0.2520841

 Al 
  0.2547547  0.7606789  0.0097520

 Al 
  0.0199767  0.0024405  0.4817596

 Al 
  0.0042411  0.2486919  0.7646144

 Al 
  0.2661935  0.0030296  0.7509542

 Al 
  0.2528848  0.2476746  0.4998465

 Al 
  0.0024355  0.4822831  0.5163333

 Al 
  0.9813289  0.7497673  0.7330033

 Al 
  0.2371454  0.4943691  0.7589030

 Al 
  0.2560517  0.7467007  0.5075429

 Al 
  0.4845391  0.5062200  0.9954804

 Al 
  0.4901837  0.7684248  0.2331592

 Al 
  0.7401614  0.4900475  0.2691018

 Al 
  0.7766398  0.7288080  0.0032919

 Al 
  0.5032857  0.9971449  0.4970472

 Al 
  0.4982402  0.2614425  0.7506522

 Al 
  0.7435795  0.0046087  0.7414027

 Al 
  0.7421885  0.2455671  0.4971066

 Al 
  0.4882889  0.5036867  0.5110576

 Al 
  0.5148359  0.7653346  0.7605391

 Al 
  0.7387493  0.5159497  0.7291854

 Al 
  0.7371603  0.7580380  0.4805703

