32 
charge = 0 
 Al 
  0.0051260  0.9855057  0.0009467

 Al 
  0.9985929  0.2479902  0.2500866

 Al 
  0.2645661  0.9971326  0.2404633

 Al 
  0.2569192  0.2305765  0.0005408

 Al 
  0.5017771  0.0129251  0.9928642

 Al 
  0.4954619  0.2594872  0.2395574

 Al 
  0.7535196  0.0026533  0.2393037

 Al 
  0.7338597  0.2600688  0.9986721

 Al 
  0.0062089  0.4859104  0.0029058

 Al 
  0.0022746  0.7514801  0.2801445

 Al 
  0.2516707  0.4903879  0.2569700

 Al 
  0.2541495  0.7578016  0.0054849

 Al 
  0.0177454  0.0035827  0.4861826

 Al 
  0.0038303  0.2470088  0.7666427

 Al 
  0.2708368  0.0027709  0.7537028

 Al 
  0.2507574  0.2450943  0.4992835

 Al 
  0.0032065  0.4797374  0.5136478

 Al 
  0.9799874  0.7493849  0.7316581

 Al 
  0.2396552  0.4982464  0.7606925

 Al 
  0.2510222  0.7468628  0.5012636

 Al 
  0.4823585  0.5060504  0.9951191

 Al 
  0.4858683  0.7715955  0.2383644

 Al 
  0.7380055  0.4929397  0.2698493

 Al 
  0.7766373  0.7374536  0.0039429

 Al 
  0.5039627  0.9954284  0.4943778

 Al 
  0.4995124  0.2579588  0.7496250

 Al 
  0.7450894  0.0036743  0.7441698

 Al 
  0.7393471  0.2465286  0.5025382

 Al 
  0.4876825  0.5014900  0.5132122

 Al 
  0.5192849  0.7624387  0.7585850

 Al 
  0.7433902  0.5141169  0.7300728

 Al 
  0.7376924  0.7557151  0.4791285

