32 
charge = 0 
 Al 
  0.0030234  0.9841802  0.0039775

 Al 
  0.9987204  0.2472613  0.2472477

 Al 
  0.2663779  0.9972192  0.2410722

 Al 
  0.2592805  0.2318425  0.0048673

 Al 
  0.5030927  0.0139003  0.9909237

 Al 
  0.4946673  0.2574749  0.2356269

 Al 
  0.7526137  0.0051718  0.2373162

 Al 
  0.7336654  0.2620279  0.9964655

 Al 
  0.0039701  0.4835132  0.0013811

 Al 
  0.0041990  0.7542448  0.2807200

 Al 
  0.2516658  0.4920227  0.2596443

 Al 
  0.2533068  0.7555109  0.0022128

 Al 
  0.0158854  0.0045456  0.4898074

 Al 
  0.0032399  0.2453987  0.7672083

 Al 
  0.2726981  0.0020989  0.7545951

 Al 
  0.2497339  0.2435721  0.4990520

 Al 
  0.0035629  0.4785332  0.5115007

 Al 
  0.9801569  0.7495248  0.7310665

 Al 
  0.2415672  0.5008044  0.7614190

 Al 
  0.2484073  0.7470942  0.4980781

 Al 
  0.4817163  0.5059242  0.9952304

 Al 
  0.4846493  0.7720237  0.2417541

 Al 
  0.7369524  0.4950002  0.2695102

 Al 
  0.7756906  0.7426390  0.0046780

 Al 
  0.5039367  0.9948493  0.4928395

 Al 
  0.5001869  0.2559490  0.7488119

 Al 
  0.7466116  0.0034392  0.7459680

 Al 
  0.7380427  0.2469247  0.5056631

 Al 
  0.4872902  0.5003119  0.5138855

 Al 
  0.5209495  0.7603869  0.7572348

 Al 
  0.7461908  0.5121912  0.7313784

 Al 
  0.7379424  0.7544193  0.4788661

