32 
charge = 0 
 Al 
  0.9994740  0.9827942  0.0091815

 Al 
  0.9988317  0.2457304  0.2418816

 Al 
  0.2676254  0.9985879  0.2434991

 Al 
  0.2621813  0.2361294  0.0125019

 Al 
  0.5068128  0.0140340  0.9877766

 Al 
  0.4939694  0.2534639  0.2302374

 Al 
  0.7506039  0.0100131  0.2341567

 Al 
  0.7346517  0.2659943  0.9921464

 Al 
  0.9993602  0.4803228  0.9994196

 Al 
  0.0075590  0.7583412  0.2791236

 Al 
  0.2512821  0.4957601  0.2640241

 Al 
  0.2509801  0.7505470  0.9951314

 Al 
  0.0112197  0.0069873  0.4982451

 Al 
  0.0019145  0.2412294  0.7670697

 Al 
  0.2744988  0.9999468  0.7550047

 Al 
  0.2483503  0.2406960  0.4988614

 Al 
  0.0040468  0.4766707  0.5066841

 Al 
  0.9822014  0.7503762  0.7304552

 Al 
  0.2456463  0.5057571  0.7618979

 Al 
  0.2444421  0.7478528  0.4936179

 Al 
  0.4819019  0.5056990  0.9960955

 Al 
  0.4848052  0.7700819  0.2480793

 Al 
  0.7352693  0.4992030  0.2672553

 Al 
  0.7720732  0.7521323  0.0066073

 Al 
  0.5032672  0.9945436  0.4903767

 Al 
  0.5010173  0.2524454  0.7469284

 Al 
  0.7506163  0.0033686  0.7495235

 Al 
  0.7364871  0.2474123  0.5110217

 Al 
  0.4865217  0.4982810  0.5142641

 Al 
  0.5224964  0.7560269  0.7542498

 Al 
  0.7515074  0.5071692  0.7353089

 Al 
  0.7383855  0.7524033  0.4793748

