32 
charge = 0 
 Al 
  0.9991424  0.9827422  0.0097124

 Al 
  0.9988293  0.2455423  0.2412950

 Al 
  0.2675882  0.9988206  0.2438555

 Al 
  0.2623571  0.2367457  0.0132704

 Al 
  0.5073115  0.0138954  0.9874759

 Al 
  0.4939842  0.2530135  0.2298253

 Al 
  0.7503515  0.0105601  0.2338746

 Al 
  0.7348621  0.2664546  0.9916588

 Al 
  0.9988169  0.4800889  0.9992637

 Al 
  0.0078833  0.7587273  0.2787325

 Al 
  0.2512116  0.4962168  0.2644485

 Al 
  0.2506695  0.7499678  0.9942973

 Al 
  0.0105997  0.0073053  0.4992934

 Al 
  0.0017759  0.2406824  0.7669620

 Al 
  0.2745607  0.9996448  0.7549564

 Al 
  0.2482439  0.2403742  0.4988614

 Al 
  0.0040815  0.4764913  0.5060962

 Al 
  0.9825615  0.7505074  0.7304366

 Al 
  0.2461215  0.5062980  0.7618682

 Al 
  0.2440869  0.7479704  0.4932701

 Al 
  0.4820467  0.5056767  0.9962440

 Al 
  0.4850082  0.7696525  0.2487488

 Al 
  0.7351022  0.4996807  0.2668692

 Al 
  0.7715125  0.7531471  0.0068561

 Al 
  0.5031545  0.9945745  0.4901540

 Al 
  0.5010569  0.2520816  0.7466957

 Al 
  0.7511460  0.0033761  0.7499295

 Al 
  0.7363930  0.2474494  0.5115539

 Al 
  0.4864400  0.4980669  0.5142431

 Al 
  0.5225571  0.7555059  0.7538798

 Al 
  0.7521014  0.5065145  0.7358633

 Al 
  0.7384424  0.7522227  0.4795084

