32 
charge = 0 
 Al 
  0.0013588  0.9833795  0.0063586

 Al 
  0.9987946  0.2466190  0.2448728

 Al 
  0.2672764  0.9976474  0.2419558

 Al 
  0.2608324  0.2334427  0.0083560

 Al 
  0.5045493  0.0142542  0.9894461

 Al 
  0.4942008  0.2557250  0.2329043

 Al 
  0.7517821  0.0072892  0.2358039

 Al 
  0.7338919  0.2637308  0.9945832

 Al 
  0.0020036  0.4818796  0.0003836

 Al 
  0.0057559  0.7562014  0.2804428

 Al 
  0.2515531  0.4935795  0.2616913

 Al 
  0.2523885  0.7533971  0.9992055

 Al 
  0.0140228  0.0055245  0.4932899

 Al 
  0.0026620  0.2437367  0.7673345

 Al 
  0.2737637  0.0012834  0.7549688

 Al 
  0.2490335  0.2423073  0.4989258

 Al 
  0.0038092  0.4776546  0.5094872

 Al 
  0.9807906  0.7498168  0.7307064

 Al 
  0.2433097  0.5029887  0.7617878

 Al 
  0.2464952  0.7473714  0.4958381

 Al 
  0.4815628  0.5058203  0.9955076

 Al 
  0.4843411  0.7715979  0.2445869

 Al 
  0.7361690  0.4968195  0.2687812

 Al 
  0.7743985  0.7468900  0.0054515

 Al 
  0.5037275  0.9945894  0.4916650

 Al 
  0.5006435  0.2543537  0.7480335

 Al 
  0.7482018  0.0033662  0.7475137

 Al 
  0.7372048  0.2471759  0.5081308

 Al 
  0.4869511  0.4993899  0.5141812

 Al 
  0.5218665  0.7585379  0.7559923

 Al 
  0.7485273  0.5101827  0.7328771

 Al 
  0.7381318  0.7534503  0.4789354

