32 
charge = 0 
 Al 
  0.9970521  0.9837149  0.0143124

 Al 
  0.9985335  0.2433778  0.2356901

 Al 
  0.2650240  0.0019170  0.2483194

 Al 
  0.2619412  0.2446079  0.0193778

 Al 
  0.5130662  0.0104030  0.9851369

 Al 
  0.4958368  0.2485199  0.2285184

 Al 
  0.7473232  0.0163098  0.2323090

 Al 
  0.7381008  0.2711165  0.9867828

 Al 
  0.9930820  0.4795790  0.9982451

 Al 
  0.0101332  0.7620044  0.2720781

 Al 
  0.2501695  0.5011398  0.2677281

 Al 
  0.2468962  0.7441773  0.9856987

 Al 
  0.0029305  0.0109821  0.5109005

 Al 
  0.0009913  0.2342891  0.7649015

 Al 
  0.2734209  0.9959297  0.7534701

 Al 
  0.2478306  0.2371219  0.4991535

 Al 
  0.0040048  0.4750644  0.4996188

 Al 
  0.9878422  0.7519999  0.7311457

 Al 
  0.2510099  0.5112185  0.7602705

 Al 
  0.2417071  0.7496782  0.4919707

 Al 
  0.4852841  0.5055356  0.9983516

 Al 
  0.4891020  0.7627444  0.2547263

 Al 
  0.7336456  0.5045258  0.2611393

 Al 
  0.7635389  0.7626169  0.0096716

 Al 
  0.5017759  0.9958269  0.4887852

 Al 
  0.5004047  0.2487018  0.7442206

 Al 
  0.7573647  0.0033872  0.7541186

 Al 
  0.7365056  0.2476734  0.5156972

 Al 
  0.4858819  0.4960361  0.5132555

 Al 
  0.5219890  0.7497587  0.7496052

 Al 
  0.7582323  0.4990483  0.7428902

 Al 
  0.7393805  0.7509950  0.4819105

