32 
charge = 0 
 Al 
  0.9973021  0.9831729  0.0133248

 Al 
  0.9986659  0.2439706  0.2370118

 Al 
  0.2660747  0.0010222  0.2470608

 Al 
  0.2624771  0.2423395  0.0182083

 Al 
  0.5115279  0.0116752  0.9855873

 Al 
  0.4950188  0.2496287  0.2282684

 Al 
  0.7481783  0.0148149  0.2324229

 Al 
  0.7370972  0.2699854  0.9879746

 Al 
  0.9945448  0.4793216  0.9984097

 Al 
  0.0097891  0.7612915  0.2742562

 Al 
  0.2504888  0.4998614  0.2671167

 Al 
  0.2479617  0.7455844  0.9878496

 Al 
  0.0051322  0.0099847  0.5078400

 Al 
  0.0010284  0.2360267  0.7655871

 Al 
  0.2740446  0.9969766  0.7540122

 Al 
  0.2478046  0.2379325  0.4990260

 Al 
  0.0041285  0.4753428  0.5013353

 Al 
  0.9862111  0.7516212  0.7307757

 Al 
  0.2497772  0.5101270  0.7609388

 Al 
  0.2420697  0.7491424  0.4918544

 Al 
  0.4841196  0.5055492  0.9977142

 Al 
  0.4877147  0.7649547  0.2533996

 Al 
  0.7339612  0.5033154  0.2629263

 Al 
  0.7660004  0.7604141  0.0089228

 Al 
  0.5021459  0.9953220  0.4889424

 Al 
  0.5007933  0.2495025  0.7448468

 Al 
  0.7556643  0.0034144  0.7530518

 Al 
  0.7362680  0.2476437  0.5149287

 Al 
  0.4859524  0.4965224  0.5136565

 Al 
  0.5223405  0.7512982  0.7507784

 Al 
  0.7566692  0.5010457  0.7408730

 Al 
  0.7390476  0.7511942  0.4810975

