32 
charge = 0 
 Al 
  0.9978033  0.9828338  0.0121219

 Al 
  0.9987587  0.2445671  0.2385080

 Al 
  0.2668816  0.0001460  0.2458096

 Al 
  0.2627036  0.2401366  0.0166452

 Al 
  0.5099339  0.0127271  0.9861801

 Al 
  0.4944334  0.2508366  0.2284738

 Al 
  0.7490186  0.0132568  0.2327830

 Al 
  0.7361628  0.2687218  0.9892889

 Al 
  0.9961079  0.4793686  0.9986523

 Al 
  0.0092347  0.7604426  0.2761905

 Al 
  0.2507871  0.4985174  0.2662814

 Al 
  0.2490112  0.7471462  0.9901812

 Al 
  0.0072707  0.0089674  0.5046532

 Al 
  0.0012140  0.2377989  0.7661972

 Al 
  0.2744443  0.9980125  0.7544676

 Al 
  0.2478813  0.2388112  0.4989320

 Al 
  0.0041681  0.4757091  0.5031112

 Al 
  0.9847025  0.7512066  0.7305430

 Al 
  0.2484555  0.5088238  0.7614314

 Al 
  0.2426489  0.7486548  0.4920907

 Al 
  0.4831555  0.5055839  0.9971128

 Al 
  0.4864994  0.7669509  0.2518291

 Al 
  0.7343424  0.5020098  0.2645649

 Al 
  0.7682664  0.7579006  0.0081469

 Al 
  0.5025333  0.9949371  0.4892679

 Al 
  0.5010198  0.2503973  0.7455237

 Al 
  0.7539392  0.0034120  0.7519182

 Al 
  0.7361839  0.2475917  0.5138731

 Al 
  0.4860923  0.4970633  0.5139622

 Al 
  0.5225558  0.7528699  0.7519578

 Al 
  0.7550121  0.5031075  0.7389028

 Al 
  0.7387815  0.7514925  0.4803982

