32 
charge = 0 
 Al 
  0.9974420  0.9830367  0.0129461

 Al 
  0.9987018  0.2441698  0.2374920

 Al 
  0.2663730  0.0007264  0.2466400

 Al 
  0.2625885  0.2415957  0.0177306

 Al 
  0.5110007  0.0120526  0.9857680

 Al 
  0.4947973  0.2500210  0.2282857

 Al 
  0.7484605  0.0143025  0.2325157

 Al 
  0.7367754  0.2695770  0.9884003

 Al 
  0.9950572  0.4793042  0.9984815

 Al 
  0.0096282  0.7610242  0.2749307

 Al 
  0.2505903  0.4994196  0.2668618

 Al 
  0.2483144  0.7460893  0.9886095

 Al 
  0.0058537  0.0096468  0.5067880

 Al 
  0.0010754  0.2366158  0.7658012

 Al 
  0.2742042  0.9973244  0.7541755

 Al 
  0.2478182  0.2382184  0.4989901

 Al 
  0.0041508  0.4754554  0.5019232

 Al 
  0.9856925  0.7514863  0.7306829

 Al 
  0.2493453  0.5097136  0.7611220

 Al 
  0.2422380  0.7489741  0.4918940

 Al 
  0.4837756  0.5055591  0.9975088

 Al 
  0.4872878  0.7656465  0.2529033

 Al 
  0.7340812  0.5028897  0.2634907

 Al 
  0.7667789  0.7596097  0.0086654

 Al 
  0.5022734  0.9951809  0.4890327

 Al 
  0.5008873  0.2497909  0.7450683

 Al 
  0.7550889  0.0034169  0.7526806

 Al 
  0.7362235  0.2476288  0.5146070

 Al 
  0.4859920  0.4966969  0.5137691

 Al 
  0.5224283  0.7518192  0.7511720

 Al 
  0.7561259  0.5017289  0.7402084

 Al 
  0.7389523  0.7512821  0.4808512

