32 
charge = 0 
 Al 
  0.9971907  0.9833313  0.0136788

 Al 
  0.9986263  0.2437713  0.2365502

 Al 
  0.2657492  0.0013205  0.2474816

 Al 
  0.2623311  0.2430907  0.0186426

 Al 
  0.5120501  0.0112742  0.9854215

 Al 
  0.4952663  0.2492476  0.2283018

 Al 
  0.7478949  0.0153210  0.2323561

 Al 
  0.7374251  0.2703802  0.9875625

 Al 
  0.9940448  0.4793735  0.9983466

 Al 
  0.0099277  0.7615452  0.2735545

 Al 
  0.2503836  0.5002958  0.2673457

 Al 
  0.2476078  0.7450968  0.9871095

 Al 
  0.0044045  0.0103213  0.5088783

 Al 
  0.0009987  0.2354413  0.7653656

 Al 
  0.2738602  0.9966276  0.7538402

 Al 
  0.2478021  0.2376541  0.4990644

 Al 
  0.0040963  0.4752401  0.5007549

 Al 
  0.9867432  0.7517524  0.7308834

 Al 
  0.2501992  0.5105156  0.7607346

 Al 
  0.2419249  0.7493156  0.4918544

 Al 
  0.4844872  0.5055418  0.9979234

 Al 
  0.4881602  0.7642394  0.2538699

 Al 
  0.7338486  0.5037300  0.2623459

 Al 
  0.7651997  0.7611851  0.0091765

 Al 
  0.5020197  0.9954779  0.4888718

 Al 
  0.5006819  0.2492253  0.7446315

 Al 
  0.7562361  0.0034082  0.7534157

 Al 
  0.7363311  0.2476561  0.5152171

 Al 
  0.4859215  0.4963529  0.5135340

 Al 
  0.5222378  0.7507809  0.7503861

 Al 
  0.7572014  0.5003700  0.7415437

 Al 
  0.7391503  0.7511175  0.4813561

