32 
charge = 0 
 Al 
  0.9980224  0.9827669  0.0116776

 Al 
  0.9987822  0.2447651  0.2390401

 Al 
  0.2670895  0.9998639  0.2454012

 Al 
  0.2627061  0.2394250  0.0160425

 Al 
  0.5093993  0.0130216  0.9864091

 Al 
  0.4942911  0.2512586  0.2286446

 Al 
  0.7492934  0.0127259  0.2329551

 Al 
  0.7358732  0.2682788  0.9897480

 Al 
  0.9966437  0.4794503  0.9987538

 Al 
  0.0090045  0.7601294  0.2767722

 Al 
  0.2508811  0.4980595  0.2659571

 Al 
  0.2493540  0.7476932  0.9909881

 Al 
  0.0079637  0.0086283  0.5035766

 Al 
  0.0013032  0.2383880  0.7663779

 Al 
  0.2745235  0.9983516  0.7545951

 Al 
  0.2479296  0.2391156  0.4989097

 Al 
  0.0041644  0.4758502  0.5037090

 Al 
  0.9842335  0.7510643  0.7304935

 Al 
  0.2479989  0.5083486  0.7615576

 Al 
  0.2428902  0.7485038  0.4922491

 Al 
  0.4828833  0.5056000  0.9969247

 Al 
  0.4861430  0.7675598  0.2512549

 Al 
  0.7344822  0.5015569  0.2650723

 Al 
  0.7689718  0.7570009  0.0078857

 Al 
  0.5026620  0.9948369  0.4894127

 Al 
  0.5010606  0.2507153  0.7457564

 Al 
  0.7533674  0.0034070  0.7515284

 Al 
  0.7361900  0.2475694  0.5134610

 Al 
  0.4861517  0.4972538  0.5140414

 Al 
  0.5225942  0.7533983  0.7523489

 Al 
  0.7544416  0.5037993  0.7382642

 Al 
  0.7387048  0.7516150  0.4801916

