32 
charge = 0 
 Al 
  0.9971140  0.9847235  0.0152653

 Al 
  0.9982934  0.2426142  0.2342458

 Al 
  0.2633087  0.0030865  0.2499530

 Al 
  0.2608052  0.2476672  0.0203096

 Al 
  0.5149386  0.0084328  0.9847545

 Al 
  0.4972526  0.2472155  0.2295233

 Al 
  0.7461821  0.0181860  0.2325578

 Al 
  0.7394820  0.2723306  0.9854265

 Al 
  0.9913519  0.4804057  0.9981300

 Al 
  0.0102643  0.7627407  0.2688864

 Al 
  0.2497327  0.5027103  0.2681786

 Al 
  0.2454767  0.7425845  0.9831939

 Al 
  0.9999480  0.0122383  0.5146589

 Al 
  0.0011980  0.2321160  0.7639176

 Al 
  0.2722786  0.9945473  0.7526608

 Al 
  0.2480088  0.2361715  0.4993713

 Al 
  0.0036892  0.4748453  0.4974717

 Al 
  0.9901502  0.7524058  0.7318536

 Al 
  0.2524962  0.5122927  0.7591146

 Al 
  0.2415425  0.7504567  0.4926316

 Al 
  0.4870996  0.5055604  0.9992278

 Al 
  0.4911193  0.7595602  0.2560938

 Al 
  0.7333412  0.5059750  0.2585899

 Al 
  0.7600230  0.7650376  0.0105948

 Al 
  0.5013415  0.9966672  0.4888397

 Al 
  0.4996485  0.2477699  0.7434929

 Al 
  0.7595181  0.0032944  0.7554230

 Al 
  0.7370390  0.2476746  0.5162591

 Al 
  0.4859141  0.4954755  0.5125823

 Al 
  0.5213418  0.7477773  0.7480756

 Al 
  0.7601443  0.4965769  0.7455547

 Al 
  0.7399547  0.7508576  0.4831605

