32 
charge = 0 
 Al 
  0.9977848  0.9863794  0.0158470

 Al 
  0.9978875  0.2417356  0.2330046

 Al 
  0.2607742  0.0044391  0.2518415

 Al 
  0.2588535  0.2514715  0.0205089

 Al 
  0.5168494  0.0056767  0.9846010

 Al 
  0.4994320  0.2458789  0.2317249

 Al 
  0.7448060  0.0203270  0.2335181

 Al 
  0.7411650  0.2732328  0.9841666

 Al 
  0.9896416  0.4822224  0.9981350

 Al 
  0.0099438  0.7633261  0.2645822

 Al 
  0.2491993  0.5044428  0.2681402

 Al 
  0.2437466  0.7410821  0.9807497

 Al 
  0.9962131  0.0136058  0.5186488

 Al 
  0.0019157  0.2297708  0.7626751

 Al 
  0.2704272  0.9928853  0.7515878

 Al 
  0.2484209  0.2352309  0.4997191

 Al 
  0.0030234  0.4748404  0.4950634

 Al 
  0.9931501  0.7527016  0.7330825

 Al 
  0.2540963  0.5129548  0.7572620

 Al 
  0.2417888  0.7515148  0.4941562

 Al 
  0.4897035  0.5056557  0.0003205

 Al 
  0.4937441  0.7553487  0.2571791

 Al 
  0.7331791  0.5075170  0.2552374

 Al 
  0.7553710  0.7672269  0.0115922

 Al 
  0.5009319  0.9979419  0.4893149

 Al 
  0.4983652  0.2467922  0.7428098

 Al 
  0.7619103  0.0030642  0.7568598

 Al 
  0.7380080  0.2476363  0.5162430

 Al 
  0.4861938  0.4949050  0.5115229

 Al 
  0.5202985  0.7454322  0.7462415

 Al 
  0.7622345  0.4939199  0.7486832

 Al 
  0.7409398  0.7508428  0.4849809

