32 
charge = 0 
 Al 
  0.9979927  0.9867556  0.0158816

 Al 
  0.9977922  0.2415759  0.2328350

 Al 
  0.2602260  0.0046891  0.2521930

 Al 
  0.2584092  0.2522239  0.0204284

 Al 
  0.5171600  0.0051012  0.9846109

 Al 
  0.4999072  0.2456512  0.2322756

 Al 
  0.7445436  0.0207255  0.2337954

 Al 
  0.7414856  0.2733169  0.9839785

 Al 
  0.9893681  0.4826915  0.9981560

 Al 
  0.0098213  0.7634003  0.2636924

 Al 
  0.2490966  0.5047597  0.2680523

 Al 
  0.2434100  0.7408458  0.9803611

 Al 
  0.9954718  0.0138434  0.5193344

 Al 
  0.0021237  0.2293674  0.7624350

 Al 
  0.2700077  0.9925660  0.7513712

 Al 
  0.2485224  0.2350787  0.4997970

 Al 
  0.0028513  0.4748775  0.4946216

 Al 
  0.9937577  0.7527276  0.7333733

 Al 
  0.2543822  0.5129907  0.7568388

 Al 
  0.2418903  0.7517375  0.4945399

 Al 
  0.4902591  0.5056829  0.0005346

 Al 
  0.4942664  0.7544899  0.2573189

 Al 
  0.7331803  0.5077892  0.2545530

 Al 
  0.7544193  0.7675548  0.0117680

 Al 
  0.5008712  0.9982204  0.4894622

 Al 
  0.4980706  0.2466177  0.7427083

 Al 
  0.7623360  0.0029999  0.7571234

 Al 
  0.7382370  0.2476264  0.5161490

 Al 
  0.4862866  0.4948047  0.5112816

 Al 
  0.5200634  0.7449804  0.7458863

 Al 
  0.7626120  0.4934558  0.7492649

 Al 
  0.7411774  0.7508539  0.4853794

