32 
charge = 0 
 Al 
  0.9973058  0.9853374  0.0155797

 Al 
  0.9981461  0.2422491  0.2336704

 Al 
  0.2623410  0.0036471  0.2507339

 Al 
  0.2600849  0.2491956  0.0205138

 Al 
  0.5157678  0.0073598  0.9846517

 Al 
  0.4980781  0.2466413  0.2302881

 Al 
  0.7456227  0.0190708  0.2328560

 Al 
  0.7401663  0.2727823  0.9848609

 Al 
  0.9906020  0.4810282  0.9981127

 Al 
  0.0101975  0.7630192  0.2671984

 Al 
  0.2495161  0.5034342  0.2682441

 Al 
  0.2447762  0.7419187  0.9821197

 Al 
  0.9984506  0.0128174  0.5163606

 Al 
  0.0014220  0.2311185  0.7634164

 Al 
  0.2715905  0.9938716  0.7522350

 Al 
  0.2481523  0.2357606  0.4995013

 Al 
  0.0034602  0.4748057  0.4964692

 Al 
  0.9913408  0.7525556  0.7323004

 Al 
  0.2531706  0.5126516  0.7584266

 Al 
  0.2415858  0.7508688  0.4931575

 Al 
  0.4881033  0.5055901  0.9996671

 Al 
  0.4921662  0.7578981  0.2566086

 Al 
  0.7332446  0.5066284  0.2572657

 Al 
  0.7581890  0.7660240  0.0110168

 Al 
  0.5011584  0.9971499  0.4889770

 Al 
  0.4991758  0.2473553  0.7431872

 Al 
  0.7605218  0.0032201  0.7560220

 Al 
  0.7373892  0.2476635  0.5163457

 Al 
  0.4859908  0.4952317  0.5121875

 Al 
  0.5209519  0.7468219  0.7473306

 Al 
  0.7610217  0.4954495  0.7468430

 Al 
  0.7403099  0.7508341  0.4838548

