32 
charge = 0 
 Al 
  0.9974420  0.9856690  0.0156960

 Al 
  0.9980645  0.2420734  0.2334216

 Al 
  0.2618323  0.0039181  0.2511113

 Al 
  0.2596926  0.2499567  0.0205522

 Al 
  0.5161514  0.0068078  0.9846208

 Al 
  0.4985149  0.2463739  0.2307299

 Al 
  0.7453468  0.0194990  0.2330479

 Al 
  0.7405042  0.2729642  0.9846084

 Al 
  0.9902591  0.4813920  0.9981127

 Al 
  0.0101332  0.7631367  0.2663371

 Al 
  0.2494097  0.5037808  0.2682355

 Al 
  0.2444297  0.7416180  0.9816296

 Al 
  0.9977031  0.0130922  0.5171600

 Al 
  0.0015643  0.2306482  0.7631677

 Al 
  0.2712192  0.9935387  0.7520197

 Al 
  0.2482340  0.2355713  0.4995706

 Al 
  0.0033278  0.4748045  0.4959878

 Al 
  0.9919410  0.7526150  0.7325454

 Al 
  0.2534912  0.5127853  0.7580565

 Al 
  0.2416353  0.7510804  0.4934644

 Al 
  0.4886243  0.5056086  0.9998861

 Al 
  0.4926922  0.7570541  0.2568252

 Al 
  0.7332112  0.5069365  0.2565937

 Al 
  0.7572571  0.7664608  0.0112160

 Al 
  0.5010754  0.9974061  0.4890723

 Al 
  0.4989184  0.2471610  0.7430498

 Al 
  0.7610019  0.0031743  0.7563091

 Al 
  0.7375835  0.2476548  0.5163420

 Al 
  0.4860465  0.4951178  0.5119759

 Al 
  0.5207428  0.7463529  0.7469630

 Al 
  0.7614400  0.4949173  0.7474704

 Al 
  0.7405067  0.7508316  0.4842186

