32 
charge = 0 
 Al 
  0.0004010  0.9902344  0.0151775

 Al 
  0.9968244  0.2405945  0.2324774

 Al 
  0.2554787  0.0063648  0.2546223

 Al 
  0.2544812  0.2581271  0.0185065

 Al 
  0.5185832  0.0004542  0.9851691

 Al 
  0.5039181  0.2443357  0.2377333

 Al 
  0.7426860  0.0234766  0.2370031

 Al 
  0.7437775  0.2726264  0.9833139

 Al 
  0.9880761  0.4876937  0.9986226

 Al 
  0.0082211  0.7634461  0.2563388

 Al 
  0.2483243  0.5069724  0.2663606

 Al 
  0.2408953  0.7396763  0.9785469

 Al 
  0.9896985  0.0151428  0.5232389

 Al 
  0.0046149  0.2271360  0.7607334

 Al 
  0.2661576  0.9901874  0.7497228

 Al 
  0.2494703  0.2343498  0.5005136

 Al 
  0.0009777  0.4756745  0.4915524

 Al 
  0.9985681  0.7524999  0.7362136

 Al 
  0.2562794  0.5120501  0.7528773

 Al 
  0.2431996  0.7536756  0.4982909

 Al 
  0.4949916  0.5059601  0.0021373

 Al 
  0.4982006  0.7476375  0.2576122

 Al 
  0.7337310  0.5095230  0.2490310

 Al 
  0.7467526  0.7689199  0.0128768

 Al 
  0.5006708  0.0006151  0.4911997

 Al 
  0.4953777  0.2454074  0.7423754

 Al 
  0.7649782  0.0022276  0.7590206

 Al 
  0.7404027  0.2475843  0.5144250

 Al 
  0.4875575  0.4940857  0.5089600

 Al 
  0.5179187  0.7415908  0.7431872

 Al 
  0.7651218  0.4906675  0.7531595

 Al 
  0.7436624  0.7510631  0.4889956

