32 
charge = 0 
 Al 
  0.9987476  0.9879684  0.0158222

 Al 
  0.9974717  0.2411366  0.2324922

 Al 
  0.2585120  0.0053871  0.2531867

 Al 
  0.2569997  0.2544651  0.0199631

 Al 
  0.5179286  0.0033526  0.9847223

 Al 
  0.5013861  0.2450510  0.2341171

 Al 
  0.7437887  0.0218541  0.2347953

 Al 
  0.7424076  0.2733540  0.9835491

 Al 
  0.9886936  0.4843052  0.9982649

 Al 
  0.0093448  0.7635315  0.2609759

 Al 
  0.2487983  0.5056544  0.2676229

 Al 
  0.2424249  0.7402616  0.9794057

 Al 
  0.9932689  0.0144646  0.5211425

 Al 
  0.0028848  0.2283092  0.7617432

 Al 
  0.2686624  0.9916328  0.7507326

 Al 
  0.2488565  0.2347013  0.5000483

 Al 
  0.0022536  0.4750693  0.4933741

 Al 
  0.9955770  0.7527350  0.7343325

 Al 
  0.2551742  0.5128979  0.7554713

 Al 
  0.2422850  0.7524318  0.4958183

 Al 
  0.4919818  0.5057757  0.0011621

 Al 
  0.4958047  0.7519034  0.2575924

 Al 
  0.7332657  0.5085318  0.2524875

 Al 
  0.7515408  0.7683283  0.0122457

 Al 
  0.5007351  0.9990916  0.4899980

 Al 
  0.4971227  0.2461301  0.7424793

 Al 
  0.7634969  0.0027647  0.7578758

 Al 
  0.7389845  0.2475979  0.5156972

 Al 
  0.4866492  0.4945225  0.5104958

 Al 
  0.5193109  0.7436637  0.7448443

 Al 
  0.7636590  0.4922133  0.7508972

 Al 
  0.7419855  0.7509121  0.4866467

