32 
charge = 0 
 Al 
  0.9990409  0.9883979  0.0157467

 Al 
  0.9973529  0.2410066  0.2324328

 Al 
  0.2579216  0.0056024  0.2534961

 Al 
  0.2565083  0.2552052  0.0197366

 Al 
  0.5181253  0.0027672  0.9847854

 Al 
  0.5018910  0.2448790  0.2347904

 Al 
  0.7435511  0.0222068  0.2351827

 Al 
  0.7426984  0.2732897  0.9834526

 Al 
  0.9885191  0.4849129  0.9983182

 Al 
  0.0091505  0.7635451  0.2600577

 Al 
  0.2487006  0.5059341  0.2674261

 Al 
  0.2421068  0.7401069  0.9791594

 Al 
  0.9925424  0.0146391  0.5216573

 Al 
  0.0031842  0.2280122  0.7615242

 Al 
  0.2681872  0.9913321  0.7505247

 Al 
  0.2489753  0.2346022  0.5001361

 Al 
  0.0020259  0.4751609  0.4929843

 Al 
  0.9961809  0.7527140  0.7346802

 Al 
  0.2554168  0.5127976  0.7549824

 Al 
  0.2424447  0.7526719  0.4962824

 Al 
  0.4925721  0.5058104  0.0013650

 Al 
  0.4963034  0.7510433  0.2576370

 Al 
  0.7333238  0.5087558  0.2517957

 Al 
  0.7505792  0.7685164  0.0123892

 Al 
  0.5007054  0.9993911  0.4902084

 Al 
  0.4967885  0.2459767  0.7424298

 Al 
  0.7638409  0.0026731  0.7581147

 Al 
  0.7392518  0.2475905  0.5154918

 Al 
  0.4867989  0.4944334  0.5102111

 Al 
  0.5190461  0.7432367  0.7445052

 Al 
  0.7639795  0.4918507  0.7513984

 Al 
  0.7422863  0.7509381  0.4870935

