32 
charge = 0 
 Al 
  0.0062645  0.9971771  0.0105230

 Al 
  0.9946203  0.2409893  0.2356319

 Al 
  0.2472935  0.0076308  0.2568796

 Al 
  0.2480273  0.2667987  0.0116999

 Al 
  0.5157430  0.9942181  0.9878905

 Al 
  0.5092966  0.2444730  0.2488924

 Al 
  0.7412999  0.0252673  0.2452775

 Al 
  0.7463665  0.2657814  0.9856282

 Al 
  0.9893817  0.5000433  0.0008316

 Al 
  0.0038204  0.7613138  0.2444062

 Al 
  0.2471066  0.5094785  0.2601035

 Al 
  0.2381850  0.7399609  0.9807633

 Al 
  0.9818140  0.0141478  0.5225360

 Al 
  0.0114697  0.2283389  0.7593089

 Al 
  0.2586159  0.9873942  0.7477897

 Al 
  0.2508811  0.2353188  0.5018180

 Al 
  0.9963170  0.4791273  0.4883397

 Al 
  0.0053896  0.7503960  0.7424113

 Al 
  0.2577570  0.5059254  0.7448913

 Al 
  0.2464828  0.7572336  0.5052832

 Al 
  0.5027870  0.5063734  0.0038055

 Al 
  0.5025976  0.7380959  0.2558512

 Al 
  0.7375798  0.5104784  0.2406440

 Al 
  0.7357767  0.7664992  0.0134486

 Al 
  0.5014789  0.0042127  0.4958344

 Al 
  0.4906972  0.2438691  0.7438704

 Al 
  0.7656317  0.0000879  0.7616009

 Al 
  0.7446513  0.2481201  0.5090429

 Al 
  0.4918729  0.4928184  0.5036001

 Al 
  0.5136825  0.7370526  0.7395970

 Al 
  0.7671464  0.4898607  0.7556371

 Al 
  0.7499641  0.7515173  0.4961611

