32 
charge = 0 
 Al 
  0.0038463  0.9943877  0.0127692

 Al 
  0.9955237  0.2404671  0.2339154

 Al 
  0.2503923  0.0073759  0.2562806

 Al 
  0.2503861  0.2636837  0.0147060

 Al 
  0.5176749  0.9962638  0.9865786

 Al 
  0.5076110  0.2440399  0.2444867

 Al 
  0.7415190  0.0251101  0.2417813

 Al 
  0.7455213  0.2692243  0.9842570

 Al 
  0.9884238  0.4948220  0.9997599

 Al 
  0.0057138  0.7624561  0.2488491

 Al 
  0.2475806  0.5086766  0.2629536

 Al 
  0.2389201  0.7395995  0.9791718

 Al 
  0.9844896  0.0150450  0.5238936

 Al 
  0.0085194  0.2270989  0.7596394

 Al 
  0.2616120  0.9882555  0.7483714

 Al 
  0.2504294  0.2346060  0.5013254

 Al 
  0.9982699  0.4774615  0.4893037

 Al 
  0.0030246  0.7514517  0.7398706

 Al 
  0.2574526  0.5088857  0.7480781

 Al 
  0.2451327  0.7558574  0.5026756

 Al 
  0.4999084  0.5062522  0.0033736

 Al 
  0.5013093  0.7413395  0.2567447

 Al 
  0.7355873  0.5104116  0.2436674

 Al 
  0.7395587  0.7680758  0.0134325

 Al 
  0.5010123  0.0029900  0.4938382

 Al 
  0.4924175  0.2444075  0.7429954

 Al 
  0.7659633  0.0010061  0.7606628

 Al 
  0.7429805  0.2477773  0.5113299

 Al 
  0.4898965  0.4933469  0.5058747

 Al 
  0.5153854  0.7386243  0.7408061

 Al 
  0.7666910  0.4896342  0.7553079

 Al 
  0.7472501  0.7513638  0.4932974

