32 
charge = 0 
 Al 
  0.0029145  0.9933011  0.0135228

 Al 
  0.9958727  0.2403953  0.2333931

 Al 
  0.2516682  0.0071915  0.2559453

 Al 
  0.2513898  0.2623447  0.0157975

 Al 
  0.5181489  0.9972266  0.9861443

 Al 
  0.5067744  0.2440040  0.2427281

 Al 
  0.7417244  0.0248428  0.2404658

 Al 
  0.7451339  0.2703344  0.9838696

 Al 
  0.9881875  0.4928667  0.9994060

 Al 
  0.0064093  0.7628051  0.2507042

 Al 
  0.2477687  0.5082979  0.2639560

 Al 
  0.2393396  0.7395327  0.9787845

 Al 
  0.9857074  0.0152220  0.5240595

 Al 
  0.0074279  0.2268774  0.7598460

 Al 
  0.2627952  0.9886837  0.7486684

 Al 
  0.2502079  0.2344414  0.5011212

 Al 
  0.9990124  0.4769145  0.4897876

 Al 
  0.0019702  0.7517908  0.7388941

 Al 
  0.2572336  0.5098770  0.7493317

 Al 
  0.2446117  0.7552980  0.5015717

 Al 
  0.4986931  0.5061853  0.0031174

 Al 
  0.5006386  0.7428135  0.2570442

 Al 
  0.7349748  0.5102755  0.2449668

 Al 
  0.7412603  0.7684892  0.0133508

 Al 
  0.5008762  0.0024269  0.4931043

 Al 
  0.4931526  0.2446426  0.7427491

 Al 
  0.7658903  0.0013477  0.7602693

 Al 
  0.7423147  0.2476944  0.5121949

 Al 
  0.4892085  0.4935449  0.5067187

 Al 
  0.5160475  0.7393198  0.7413593

 Al 
  0.7663915  0.4897258  0.7549564

 Al 
  0.7462539  0.7512883  0.4921724

