32 
charge = 0 
 Al 
  0.0052906  0.9960547  0.0114772

 Al 
  0.9949842  0.2407208  0.2348819

 Al 
  0.2485087  0.0075640  0.2566816

 Al 
  0.2489394  0.2655995  0.0129400

 Al 
  0.5166415  0.9949668  0.9873286

 Al 
  0.5087001  0.2442404  0.2471425

 Al 
  0.7413346  0.0252983  0.2438555

 Al 
  0.7460472  0.2672615  0.9850144

 Al 
  0.9889411  0.4979135  0.0003737

 Al 
  0.0046000  0.7618138  0.2461400

 Al 
  0.2472959  0.5091840  0.2612952

 Al 
  0.2384189  0.7397876  0.9800270

 Al 
  0.9828127  0.0145834  0.5232352

 Al 
  0.0102606  0.2277288  0.7594117

 Al 
  0.2598139  0.9876999  0.7479927

 Al 
  0.2507215  0.2349822  0.5016262

 Al 
  0.9971078  0.4784107  0.4886825

 Al 
  0.0044973  0.7508514  0.7413853

 Al 
  0.2576778  0.5071828  0.7461660

 Al 
  0.2459383  0.7566927  0.5042783

 Al 
  0.5016719  0.5063351  0.0036731

 Al 
  0.5021534  0.7393075  0.2562249

 Al 
  0.7367036  0.5104995  0.2418073

 Al 
  0.7371962  0.7672170  0.0134758

 Al 
  0.5012722  0.0037622  0.4950126

 Al 
  0.4913581  0.2440758  0.7434780

 Al 
  0.7658507  0.0004628  0.7612346

 Al 
  0.7439867  0.2479593  0.5099686

 Al 
  0.4910425  0.4930350  0.5045332

 Al 
  0.5143681  0.7376504  0.7400475

 Al 
  0.7670140  0.4896973  0.7555975

 Al 
  0.7488478  0.7514640  0.4950139

