32 
charge = 0 
 Al 
  0.0048042  0.9954953  0.0119276

 Al 
  0.9951648  0.2406156  0.2345367

 Al 
  0.2491300  0.0075132  0.2565616

 Al 
  0.2494122  0.2649757  0.0135439

 Al 
  0.5170289  0.9953777  0.9870662

 Al 
  0.5083610  0.2441538  0.2462588

 Al 
  0.7413791  0.0252661  0.2431538

 Al 
  0.7458789  0.2679521  0.9847396

 Al 
  0.9887481  0.4968665  0.0001596

 Al 
  0.0049787  0.7620440  0.2470299

 Al 
  0.2473912  0.5090231  0.2618670

 Al 
  0.2385674  0.7397146  0.9797065

 Al 
  0.9833498  0.0147629  0.5235087

 Al 
  0.0096691  0.2274801  0.7594773

 Al 
  0.2604141  0.9878719  0.7481090

 Al 
  0.2506312  0.2348399  0.5015272

 Al 
  0.9975001  0.4780778  0.4888756

 Al 
  0.0040233  0.7510631  0.7408755

 Al 
  0.2576172  0.5077768  0.7468059

 Al 
  0.2456673  0.7564168  0.5037535

 Al 
  0.5010952  0.5063103  0.0035852

 Al 
  0.5018947  0.7399572  0.2564056

 Al 
  0.7363051  0.5104859  0.2424137

 Al 
  0.7379548  0.7675325  0.0134721

 Al 
  0.5011782  0.0035159  0.4946129

 Al 
  0.4917034  0.2441835  0.7433023

 Al 
  0.7659175  0.0006472  0.7610465

 Al 
  0.7436525  0.2478900  0.5104289

 Al 
  0.4906465  0.4931414  0.5049899

 Al 
  0.5147097  0.7379647  0.7402888

 Al 
  0.7669237  0.4896503  0.7555319

 Al 
  0.7483033  0.7514319  0.4944396

