32 
charge = 0 
 Al 
  0.0057769  0.9966153  0.0110081

 Al 
  0.9948022  0.2408458  0.2352470

 Al 
  0.2478961  0.0076036  0.2567880

 Al 
  0.2484766  0.2662084  0.0123249

 Al 
  0.5162121  0.9945807  0.9876033

 Al 
  0.5090119  0.2443468  0.2480211

 Al 
  0.7413086  0.0252995  0.2445634

 Al 
  0.7462106  0.2665363  0.9853114

 Al 
  0.9891528  0.4989741  0.0005990

 Al 
  0.0042127  0.7615700  0.2452638

 Al 
  0.2472006  0.5093362  0.2607062

 Al 
  0.2382914  0.7398693  0.9803797

 Al 
  0.9823004  0.0143780  0.5229110

 Al 
  0.0108621  0.2280147  0.7593560

 Al 
  0.2592137  0.9875402  0.7478850

 Al 
  0.2508044  0.2351418  0.5017239

 Al 
  0.9967130  0.4787610  0.4885043

 Al 
  0.0049540  0.7506287  0.7418977

 Al 
  0.2577249  0.5065640  0.7455274

 Al 
  0.2462106  0.7569662  0.5047881

 Al 
  0.5022375  0.5063561  0.0037461

 Al 
  0.5023873  0.7386862  0.2560405

 Al 
  0.7371294  0.5104970  0.2412170

 Al 
  0.7364685  0.7668717  0.0134684

 Al 
  0.5013725  0.0039949  0.4954210

 Al 
  0.4910227  0.2439706  0.7436674

 Al 
  0.7657554  0.0002760  0.7614190

 Al 
  0.7443208  0.2480360  0.5095070

 Al 
  0.4914522  0.4929273  0.5040703

 Al 
  0.5140253  0.7373459  0.7398161

 Al 
  0.7670883  0.4897678  0.7556321

 Al 
  0.7494023  0.7514925  0.4955881

