32 
charge = 0 
 Al 
  0.0067497  0.9977377  0.0100230

 Al 
  0.9944396  0.2411539  0.2360329

 Al 
  0.2467044  0.0076469  0.2569588

 Al 
  0.2475917  0.2673704  0.0110675

 Al 
  0.5152332  0.9938803  0.9881899

 Al 
  0.5095527  0.2446191  0.2497512

 Al 
  0.7413098  0.0252017  0.2459928

 Al 
  0.7465175  0.2649968  0.9859636

 Al 
  0.9896268  0.5011175  0.0010717

 Al 
  0.0034219  0.7610440  0.2435684

 Al 
  0.2470113  0.5096134  0.2594884

 Al 
  0.2381021  0.7400599  0.9811779

 Al 
  0.9813536  0.0138941  0.5221140

 Al 
  0.0120823  0.2286991  0.7592693

 Al 
  0.2580231  0.9872630  0.7477043

 Al 
  0.2509480  0.2355106  0.5019108

 Al 
  0.9959222  0.4795097  0.4881912

 Al 
  0.0058042  0.7501535  0.7429249

 Al 
  0.2577744  0.5052671  0.7442577

 Al 
  0.2467551  0.7574959  0.5057609

 Al 
  0.5033216  0.5063858  0.0038501

 Al 
  0.5027820  0.7375390  0.2556606

 Al 
  0.7380563  0.5104438  0.2400908

 Al 
  0.7351208  0.7661032  0.0134177

 Al 
  0.5015915  0.0044156  0.4962539

 Al 
  0.4903841  0.2437701  0.7440869

 Al 
  0.7654794  0.9998973  0.7617791

 Al 
  0.7449792  0.2482142  0.5085813

 Al 
  0.4923036  0.4927083  0.5031248

 Al 
  0.5133384  0.7367705  0.7393904

 Al 
  0.7671860  0.4899770  0.7556136

 Al 
  0.7505334  0.7515395  0.4967304

