32 
charge = 0 
 Al 
  0.0132283  0.0061829  0.0009504

 Al 
  0.9920412  0.2462502  0.2439892

 Al 
  0.2395203  0.0065294  0.2566643

 Al 
  0.2428098  0.2736795  0.0009975

 Al 
  0.5024256  0.9921167  0.9945436

 Al 
  0.5096641  0.2492166  0.2607359

 Al 
  0.7435412  0.0192255  0.2565071

 Al 
  0.7485582  0.2501992  0.9932565

 Al 
  0.9945881  0.5171328  0.0050715

 Al 
  0.9965583  0.7558190  0.2338065

 Al 
  0.2455386  0.5105774  0.2489840

 Al 
  0.2406688  0.7422751  0.9908878

 Al 
  0.9781013  0.0073301  0.5103794

 Al 
  0.0208789  0.2385649  0.7587595

 Al 
  0.2497438  0.9875241  0.7480075

 Al 
  0.2506708  0.2404807  0.5027028

 Al 
  0.9907010  0.4879189  0.4877432

 Al 
  0.0090330  0.7452181  0.7504641

 Al 
  0.2561284  0.4936563  0.7351851

 Al 
  0.2506188  0.7600738  0.5099389

 Al 
  0.5090812  0.5053079  0.0022709

 Al 
  0.5023959  0.7336431  0.2533204

 Al 
  0.7486387  0.5075627  0.2344859

 Al 
  0.7303091  0.7576320  0.0108683

 Al 
  0.5039392  0.0050010  0.5033711

 Al 
  0.4876157  0.2426687  0.7492550

 Al 
  0.7599339  0.9969828  0.7639127

 Al 
  0.7495483  0.2509764  0.5024046

 Al 
  0.5002339  0.4912480  0.4954829

 Al 
  0.5080466  0.7338993  0.7379152

 Al 
  0.7656069  0.4940065  0.7523489

 Al 
  0.7596319  0.7511002  0.5047869

