32 
charge = 0 
 Al 
  0.0124264  0.0048983  0.0025011

 Al 
  0.9923222  0.2451203  0.2425585

 Al 
  0.2403643  0.0068771  0.2568883

 Al 
  0.2432677  0.2730348  0.0025234

 Al 
  0.5050542  0.9919422  0.9932751

 Al 
  0.5101715  0.2482204  0.2594080

 Al 
  0.7429546  0.0208826  0.2550059

 Al 
  0.7482414  0.2527808  0.9918742

 Al 
  0.9937355  0.5148495  0.0045122

 Al 
  0.9977278  0.7566965  0.2348361

 Al 
  0.2457725  0.5105787  0.2506967

 Al 
  0.2396664  0.7418432  0.9889795

 Al 
  0.9780667  0.0086518  0.5127976

 Al 
  0.0197552  0.2364796  0.7589513

 Al 
  0.2508997  0.9871430  0.7477390

 Al 
  0.2508972  0.2394584  0.5027152

 Al 
  0.9913272  0.4862111  0.4875724

 Al 
  0.0089798  0.7461351  0.7493577

 Al 
  0.2566358  0.4955460  0.7365007

 Al 
  0.2500891  0.7599401  0.5097928

 Al 
  0.5085355  0.5057287  0.0028513

 Al 
  0.5028662  0.7335949  0.2535357

 Al 
  0.7465843  0.5083498  0.2349178

 Al 
  0.7303277  0.7591666  0.0116145

 Al 
  0.5034912  0.0052807  0.5021657

 Al 
  0.4877085  0.2427900  0.7481932

 Al 
  0.7611801  0.9974259  0.7636973

 Al 
  0.7488850  0.2503601  0.5031595

 Al 
  0.4988194  0.4914014  0.4966771

 Al 
  0.5088708  0.7341542  0.7379078

 Al 
  0.7661465  0.4931439  0.7531471

 Al 
  0.7582298  0.7513143  0.5036496

