32 
charge = 0 
 Al 
  0.0118014  0.0039899  0.0035617

 Al 
  0.9925511  0.2444075  0.2415957

 Al 
  0.2410240  0.0070801  0.2570058

 Al 
  0.2436649  0.2725014  0.0036211

 Al 
  0.5067484  0.9919237  0.9924632

 Al 
  0.5103992  0.2475806  0.2583696

 Al 
  0.7425907  0.0218566  0.2539095

 Al 
  0.7480249  0.2545369  0.9909584

 Al 
  0.9931451  0.5131701  0.0040815

 Al 
  0.9985224  0.7573140  0.2356901

 Al 
  0.2459358  0.5105416  0.2518898

 Al 
  0.2391243  0.7415648  0.9877296

 Al 
  0.9781805  0.0095156  0.5143706

 Al 
  0.0188728  0.2351480  0.7590330

 Al 
  0.2517437  0.9869635  0.7476041

 Al 
  0.2510123  0.2387976  0.5026781

 Al 
  0.9918247  0.4851233  0.4875105

 Al 
  0.0088312  0.7467452  0.7485644

 Al 
  0.2569341  0.4968739  0.7374449

 Al 
  0.2496943  0.7597668  0.5095565

 Al 
  0.5080677  0.5059453  0.0031731

 Al 
  0.5031038  0.7337223  0.2537325

 Al 
  0.7452329  0.5088164  0.2353349

 Al 
  0.7305171  0.7602099  0.0120378

 Al 
  0.5031966  0.0053846  0.5013477

 Al 
  0.4878694  0.2428865  0.7475125

 Al 
  0.7619685  0.9977390  0.7635105

 Al 
  0.7484134  0.2499728  0.5037535

 Al 
  0.4978751  0.4915363  0.4975212

 Al 
  0.5094476  0.7343795  0.7379610

 Al 
  0.7664534  0.4925845  0.7536545

 Al 
  0.7572323  0.7514207  0.5028216

