32 
charge = 0 
 Al 
  0.0134597  0.0065900  0.0004455

 Al 
  0.9919657  0.2466425  0.2444619

 Al 
  0.2392753  0.0064044  0.2565776

 Al 
  0.2426934  0.2738553  0.0005235

 Al 
  0.5015296  0.9922108  0.9949817

 Al 
  0.5094537  0.2495557  0.2611195

 Al 
  0.7437441  0.0186228  0.2569712

 Al 
  0.7486622  0.2493540  0.9937194

 Al 
  0.9948616  0.5178296  0.0052312

 Al 
  0.9961747  0.7555430  0.2335305

 Al 
  0.2454643  0.5105626  0.2484345

 Al 
  0.2410524  0.7424224  0.9915314

 Al 
  0.9781644  0.0068858  0.5095626

 Al 
  0.0211970  0.2392815  0.7586728

 Al 
  0.2493862  0.9876788  0.7481127

 Al 
  0.2505817  0.2408272  0.5026793

 Al 
  0.9905252  0.4885092  0.4878199

 Al 
  0.0090095  0.7449124  0.7508131

 Al 
  0.2559440  0.4930573  0.7347730

 Al 
  0.2507784  0.7600861  0.5099339

 Al 
  0.5092236  0.5051408  0.0020531

 Al 
  0.5022115  0.7337199  0.2532696

 Al 
  0.7493280  0.5072781  0.2343919

 Al 
  0.7303685  0.7571308  0.0105886

 Al 
  0.5040914  0.0048760  0.5037671

 Al 
  0.4876244  0.2426340  0.7496201

 Al 
  0.7595045  0.9968417  0.7639659

 Al 
  0.7497599  0.2511905  0.5021905

 Al 
  0.5007054  0.4912121  0.4951054

 Al 
  0.5077818  0.7338337  0.7379412

 Al 
  0.7654064  0.4942973  0.7520779

 Al 
  0.7600738  0.7510148  0.5051396

