32 
charge = 0 
 Al 
  0.0111046  0.0030395  0.0046409

 Al 
  0.9928110  0.2437330  0.2406292

 Al 
  0.2417665  0.0072571  0.2570949

 Al 
  0.2441352  0.2718789  0.0047770

 Al 
  0.5083882  0.9919942  0.9916786

 Al 
  0.5105304  0.2469680  0.2572088

 Al 
  0.7422578  0.0227229  0.2527387

 Al 
  0.7478009  0.2563140  0.9900525

 Al 
  0.9925400  0.5113720  0.0036149

 Al 
  0.9993280  0.7579501  0.2366814

 Al 
  0.2461042  0.5104710  0.2531187

 Al 
  0.2386874  0.7412913  0.9865056

 Al 
  0.9784058  0.0103596  0.5158953

 Al 
  0.0178952  0.2338696  0.7590874

 Al 
  0.2526484  0.9868472  0.7475075

 Al 
  0.2510952  0.2381578  0.5026100

 Al 
  0.9923840  0.4840763  0.4874932

 Al 
  0.0085850  0.7473504  0.7477241

 Al 
  0.2571927  0.4982464  0.7384474

 Al 
  0.2492674  0.7595305  0.5092050

 Al 
  0.5075095  0.5061148  0.0034379

 Al 
  0.5032709  0.7339859  0.2539713

 Al 
  0.7439062  0.5092322  0.2358608

 Al 
  0.7308611  0.7612581  0.0124041

 Al 
  0.5029083  0.0054156  0.5005173

 Al 
  0.4881070  0.2429966  0.7468578

 Al 
  0.7627172  0.9980682  0.7632889

 Al 
  0.7479147  0.2496089  0.5044169

 Al 
  0.4969284  0.4916947  0.4984011

 Al 
  0.5100465  0.7346505  0.7380637

 Al 
  0.7667145  0.4920449  0.7541322

 Al 
  0.7561878  0.7514999  0.5019355

