32 
charge = 0 
 Al 
  0.0143495  0.0084934  0.9980088

 Al 
  0.9917356  0.2487055  0.2467910

 Al 
  0.2382988  0.0057089  0.2560678

 Al 
  0.2423680  0.2744555  0.9984196

 Al 
  0.4969098  0.9929236  0.9972996

 Al 
  0.5081036  0.2512660  0.2625947

 Al 
  0.7447886  0.0152356  0.2590268

 Al 
  0.7491733  0.2452391  0.9960373

 Al 
  0.9961648  0.5208109  0.0057918

 Al 
  0.9942911  0.7543154  0.2326419

 Al 
  0.2451104  0.5103658  0.2458492

 Al 
  0.2433432  0.7432120  0.9947936

 Al 
  0.9788723  0.0046347  0.5054230

 Al 
  0.0223194  0.2430226  0.7580417

 Al 
  0.2477749  0.9886553  0.7487364

 Al 
  0.2500495  0.2425907  0.5023972

 Al 
  0.9899052  0.4916514  0.4883409

 Al 
  0.0086134  0.7434038  0.7524157

 Al 
  0.2549267  0.4903198  0.7328684

 Al 
  0.2514517  0.7598931  0.5095255

 Al 
  0.5096740  0.5040914  0.0007933

 Al 
  0.5011274  0.7345181  0.2531632

 Al 
  0.7527721  0.5057039  0.2342768

 Al 
  0.7311012  0.7547225  0.0089624

 Al 
  0.5048661  0.0040382  0.5057250

 Al 
  0.4879635  0.2425004  0.7515272

 Al 
  0.7572583  0.9961772  0.7640847

 Al 
  0.7507648  0.2523105  0.5013910

 Al 
  0.5030716  0.4911650  0.4933704

 Al 
  0.5065121  0.7336493  0.7382209

 Al 
  0.7642555  0.4957527  0.7507042

 Al 
  0.7620836  0.7504690  0.5067138

