32 
charge = 0 
 Al 
  0.0148000  0.0102025  0.9957106

 Al 
  0.9917813  0.2509232  0.2490706

 Al 
  0.2376937  0.0049292  0.2554440

 Al 
  0.2424645  0.2746102  0.9967861

 Al 
  0.4920685  0.9940015  0.9998787

 Al 
  0.5062831  0.2529392  0.2633545

 Al 
  0.7458232  0.0112309  0.2606727

 Al 
  0.7496795  0.2412764  0.9983776

 Al 
  0.9973751  0.5229271  0.0058933

 Al 
  0.9924608  0.7533959  0.2325652

 Al 
  0.2448072  0.5099587  0.2435350

 Al 
  0.2462403  0.7441117  0.9981300

 Al 
  0.9802436  0.0023563  0.5012425

 Al 
  0.0225793  0.2470385  0.7570096

 Al 
  0.2464086  0.9899473  0.7494777

 Al 
  0.2493948  0.2443765  0.5017982

 Al 
  0.9897468  0.4951537  0.4890896

 Al 
  0.0078276  0.7419558  0.7538216

 Al 
  0.2537907  0.4880823  0.7311841

 Al 
  0.2519157  0.7592854  0.5085206

 Al 
  0.5097421  0.5026620  0.9992760

 Al 
  0.4998218  0.7359512  0.2532771

 Al 
  0.7561606  0.5038897  0.2347136

 Al 
  0.7324687  0.7524937  0.0069303

 Al 
  0.5056656  0.0028786  0.5076704

 Al 
  0.4888161  0.2424236  0.7535741

 Al 
  0.7548537  0.9955695  0.7639411

 Al 
  0.7517276  0.2534813  0.5010408

 Al 
  0.5054737  0.4913841  0.4919076

 Al 
  0.5052881  0.7336827  0.7387468

 Al 
  0.7628471  0.4971635  0.7493490

 Al 
  0.7637518  0.7497191  0.5080083

