32 
charge = 0 
 Al 
  0.0142976  0.0130959  0.9915895

 Al 
  0.9928630  0.2555987  0.2534268

 Al 
  0.2374598  0.0032981  0.2539491

 Al 
  0.2438332  0.2735595  0.9950114

 Al 
  0.4819675  0.9971511  0.0059279

 Al 
  0.5013588  0.2557844  0.2627370

 Al 
  0.7475682  0.0015680  0.2627333

 Al 
  0.7507066  0.2337694  0.0031657

 Al 
  0.9996659  0.5243206  0.0044391

 Al 
  0.9890488  0.7526768  0.2348225

 Al 
  0.2444718  0.5084315  0.2398718

 Al 
  0.2536335  0.7463022  0.0048339

 Al 
  0.9851517  0.9978367  0.4931563

 Al 
  0.0200052  0.2557571  0.7535617

 Al 
  0.2442317  0.9933592  0.7509789

 Al 
  0.2478590  0.2478343  0.4994815

 Al 
  0.9910202  0.5033105  0.4912504

 Al 
  0.0054626  0.7395426  0.7560987

 Al 
  0.2514752  0.4856183  0.7283959

 Al 
  0.2521868  0.7568450  0.5049663

 Al 
  0.5089191  0.4986845  0.9956982

 Al 
  0.4968714  0.7404361  0.2540072

 Al 
  0.7623632  0.4996906  0.2370638

 Al 
  0.7366640  0.7486597  0.0017004

 Al 
  0.5071853  0.9997698  0.5115205

 Al 
  0.4921167  0.2424298  0.7580033

 Al 
  0.7496807  0.9944978  0.7628112

 Al 
  0.7537313  0.2557299  0.5015927

 Al 
  0.5103089  0.4928655  0.4899176

 Al 
  0.5027004  0.7343820  0.7405401

 Al 
  0.7592718  0.4995792  0.7468912

 Al 
  0.7659200  0.7476152  0.5098547

