32 
charge = 0 
 Al 
  0.0144362  0.0128422  0.9919633

 Al 
  0.9926910  0.2551359  0.2530122

 Al 
  0.2374288  0.0034565  0.2541062

 Al 
  0.2436352  0.2737476  0.9950993

 Al 
  0.4829761  0.9967836  0.0052757

 Al 
  0.5019157  0.2555480  0.2629239

 Al 
  0.7474259  0.0026088  0.2626058

 Al 
  0.7506027  0.2344859  0.0026830

 Al 
  0.9994406  0.5243589  0.0046879

 Al 
  0.9893644  0.7526793  0.2344612

 Al 
  0.2444805  0.5086270  0.2401663

 Al 
  0.2528229  0.7460633  0.0041830

 Al 
  0.9845305  0.9982748  0.4939199

 Al 
  0.0204631  0.2548649  0.7539874

 Al 
  0.2444186  0.9929793  0.7508453

 Al 
  0.2480187  0.2475063  0.4997810

 Al 
  0.9907901  0.5024392  0.4909992

 Al 
  0.0057287  0.7397357  0.7559069

 Al 
  0.2516893  0.4857185  0.7286347

 Al 
  0.2521991  0.7571568  0.5053995

 Al 
  0.5090528  0.4991374  0.9960732

 Al 
  0.4971697  0.7399064  0.2539119

 Al 
  0.7618026  0.5001312  0.2367507

 Al 
  0.7361752  0.7490013  0.0022796

 Al 
  0.5070504  0.0001176  0.5111480

 Al 
  0.4916947  0.2424187  0.7575528

 Al 
  0.7502054  0.9945956  0.7629746

 Al 
  0.7535209  0.2555245  0.5014702

 Al 
  0.5098399  0.4926489  0.4900525

 Al 
  0.5029788  0.7342755  0.7403173

 Al 
  0.7596678  0.4993763  0.7471128

 Al 
  0.7657814  0.7478565  0.5097149

