32 
charge = 0 
 Al 
  0.0147332  0.0120291  0.9931439

 Al 
  0.9922603  0.2537251  0.2517338

 Al 
  0.2374053  0.0039429  0.2545740

 Al 
  0.2431130  0.2742005  0.9954792

 Al 
  0.4860254  0.9957440  0.0033748

 Al 
  0.5035110  0.2547634  0.2633211

 Al 
  0.7469482  0.0056532  0.2621157

 Al 
  0.7502933  0.2366888  0.0012376

 Al 
  0.9987612  0.5242364  0.0052992

 Al 
  0.9903544  0.7527759  0.2335478

 Al 
  0.2445461  0.5091604  0.2411564

 Al 
  0.2504653  0.7453690  0.0021855

 Al 
  0.9828362  0.9996164  0.4962898

 Al 
  0.0215670  0.2521979  0.7551619

 Al 
  0.2450213  0.9918816  0.7504109

 Al 
  0.2484926  0.2464915  0.5005928

 Al 
  0.9902406  0.4998837  0.4902851

 Al 
  0.0064997  0.7403928  0.7552794

 Al 
  0.2523675  0.4862284  0.7294107

 Al 
  0.2521843  0.7580083  0.5066061

 Al 
  0.5093894  0.5004344  0.9971870

 Al 
  0.4980731  0.7384139  0.2536520

 Al 
  0.7600243  0.5014368  0.2359066

 Al 
  0.7347916  0.7500829  0.0039565

 Al 
  0.5066148  0.0011200  0.5100032

 Al 
  0.4905463  0.2424001  0.7562014

 Al 
  0.7517821  0.9949025  0.7633979

 Al 
  0.7529046  0.2548723  0.5011856

 Al 
  0.5083981  0.4920907  0.4905475

 Al 
  0.5037832  0.7340020  0.7397047

 Al 
  0.7608101  0.4987067  0.7478157

 Al 
  0.7652567  0.7485446  0.5092347

