32 
charge = 0 
 Al 
  0.0145550  0.0125798  0.9923469

 Al 
  0.9925338  0.2546681  0.2525915

 Al 
  0.2374090  0.0036162  0.2542634

 Al 
  0.2434483  0.2739171  0.9952057

 Al 
  0.4839897  0.9964259  0.0046334

 Al 
  0.5024615  0.2552980  0.2630835

 Al 
  0.7472749  0.0036384  0.2624598

 Al 
  0.7505000  0.2352111  0.0022016

 Al 
  0.9992154  0.5243589  0.0049156

 Al 
  0.9896886  0.7526954  0.2341270

 Al 
  0.2444966  0.5088152  0.2404794

 Al 
  0.2520234  0.7458282  0.0035233

 Al 
  0.9839377  0.9987179  0.4946970

 Al 
  0.0208764  0.2539738  0.7543958

 Al 
  0.2446129  0.9926056  0.7507054

 Al 
  0.2481771  0.2471722  0.5000668

 Al 
  0.9905846  0.5015767  0.4907529

 Al 
  0.0059910  0.7399423  0.7557064

 Al 
  0.2519096  0.4858547  0.7288847

 Al 
  0.2522029  0.7574551  0.5058178

 Al 
  0.5091753  0.4995805  0.9964470

 Al 
  0.4974704  0.7393929  0.2538216

 Al 
  0.7612247  0.5005693  0.2364524

 Al 
  0.7357000  0.7493515  0.0028501

 Al 
  0.5069105  0.0004591  0.5107693

 Al 
  0.4912925  0.2424100  0.7571024

 Al 
  0.7507314  0.9946958  0.7631268

 Al 
  0.7533130  0.2553129  0.5013613

 Al 
  0.5093634  0.4924484  0.4902022

 Al 
  0.5032523  0.7341765  0.7401032

 Al 
  0.7600564  0.4991622  0.7473417

 Al 
  0.7656242  0.7480917  0.5095651

