32 
charge = 0 
 Al 
  0.0133137  0.0141986  0.9899089

 Al 
  0.9939248  0.2578016  0.2553772

 Al 
  0.2377815  0.0025519  0.2531719

 Al 
  0.2449780  0.2723590  0.9948505

 Al 
  0.4770927  0.9991337  0.0092520

 Al 
  0.4984530  0.2567460  0.2614363

 Al 
  0.7481325  0.9962811  0.2630872

 Al 
  0.7512079  0.2303933  0.0055455

 Al 
  0.0007698  0.5235496  0.0028798

 Al 
  0.9876157  0.7528835  0.2369883

 Al 
  0.2445263  0.5073313  0.2387134

 Al 
  0.2577434  0.7475187  0.0078981

 Al 
  0.9886268  0.9957626  0.4896404

 Al 
  0.0170660  0.2601332  0.7512376

 Al 
  0.2434112  0.9953208  0.7515222

 Al 
  0.2470930  0.2493738  0.4977959

 Al 
  0.9925115  0.5077137  0.4925870

 Al 
  0.0041198  0.7388149  0.7569130

 Al 
  0.2505606  0.4856641  0.7273749

 Al 
  0.2520073  0.7551148  0.5026323

 Al 
  0.5081258  0.4963257  0.9938518

 Al 
  0.4954458  0.7432565  0.2545221

 Al 
  0.7648520  0.4975038  0.2388236

 Al 
  0.7392382  0.7471190  0.9987290

 Al 
  0.5077335  0.9979716  0.5132753

 Al 
  0.4944594  0.2425251  0.7601926

 Al 
  0.7471301  0.9940510  0.7618583

 Al 
  0.7548191  0.2566333  0.5023749

 Al 
  0.5125155  0.4941538  0.4894795

 Al 
  0.5012091  0.7350317  0.7417851

 Al 
  0.7572237  0.5004146  0.7459074

 Al 
  0.7663111  0.7463665  0.5103893

