32 
charge = 0 
 Al 
  0.0127939  0.0145513  0.9893396

 Al 
  0.9944334  0.2586048  0.2560863

 Al 
  0.2379783  0.0022796  0.2528786

 Al 
  0.2454866  0.2717662  0.9948988

 Al 
  0.4752710  0.9999802  0.0105836

 Al 
  0.4972637  0.2570182  0.2607656

 Al 
  0.7482823  0.9941797  0.2630946

 Al 
  0.7513960  0.2291632  0.0064749

 Al 
  0.0012004  0.5229877  0.0021336

 Al 
  0.9871306  0.7530518  0.2379833

 Al 
  0.2445980  0.5068487  0.2384090

 Al 
  0.2593572  0.7480026  0.0089983

 Al 
  0.9901564  0.9950052  0.4884078

 Al 
  0.0156168  0.2618051  0.7502426

 Al 
  0.2431402  0.9961153  0.7516658

 Al 
  0.2468108  0.2499332  0.4970571

 Al 
  0.9932639  0.5094513  0.4931390

 Al 
  0.0036025  0.7386528  0.7571667

 Al 
  0.2502859  0.4859376  0.7270593

 Al 
  0.2518848  0.7543649  0.5016447

 Al 
  0.5077645  0.4953678  0.9931513

 Al 
  0.4949322  0.7444372  0.2547411

 Al 
  0.7656750  0.4966611  0.2395909

 Al 
  0.7403049  0.7465806  0.9975434

 Al 
  0.5078783  0.9972452  0.5139065

 Al 
  0.4954817  0.2425808  0.7610118

 Al 
  0.7461697  0.9938951  0.7614227

 Al 
  0.7552671  0.2569217  0.5027486

 Al 
  0.5133063  0.4947503  0.4894164

 Al 
  0.5005668  0.7353398  0.7423333

 Al 
  0.7563858  0.5006571  0.7455831

 Al 
  0.7663173  0.7458653  0.5105218

