32 
charge = 0 
 Al 
  0.0139609  0.0135711  0.9908767

 Al 
  0.9932491  0.2565071  0.2542337

 Al 
  0.2375575  0.0029900  0.2536335

 Al 
  0.2442651  0.2731300  0.9948951

 Al 
  0.4799750  0.9979184  0.0072484

 Al 
  0.5002166  0.2562150  0.2622878

 Al 
  0.7478244  0.9994617  0.2629313

 Al 
  0.7509108  0.2323746  0.0041248

 Al 
  0.0001114  0.5241250  0.0038748

 Al 
  0.9884436  0.7527189  0.2356232

 Al 
  0.2444730  0.5080132  0.2393433

 Al 
  0.2552745  0.7467861  0.0061037

 Al 
  0.9864734  0.9969816  0.4916848

 Al 
  0.0189557  0.2575306  0.7526682

 Al 
  0.2438803  0.9941340  0.7512239

 Al 
  0.2475459  0.2484716  0.4988416

 Al 
  0.9915487  0.5050691  0.4917727

 Al 
  0.0049230  0.7391998  0.7564539

 Al 
  0.2510754  0.4855255  0.7279503

 Al 
  0.2521385  0.7561841  0.5040629

 Al 
  0.5086258  0.4977551  0.9949495

 Al 
  0.4962836  0.7415338  0.2542052

 Al 
  0.7634251  0.4988082  0.2377333

 Al 
  0.7376702  0.7480112  0.0005198

 Al 
  0.5074316  0.9990595  0.5122469

 Al 
  0.4930102  0.2424608  0.7588968

 Al 
  0.7486412  0.9943097  0.7624561

 Al 
  0.7541607  0.2561185  0.5018749

 Al 
  0.5112247  0.4933419  0.4896948

 Al 
  0.5021237  0.7346208  0.7410141

 Al 
  0.7584649  0.4999505  0.7464717

 Al 
  0.7661378  0.7471214  0.5101022

