32 
charge = 0 
 Al 
  0.0115737  0.0150760  0.9884040

 Al 
  0.9955646  0.2600243  0.2573598

 Al 
  0.2384535  0.0017821  0.2523464

 Al 
  0.2465373  0.2704198  0.9951401

 Al 
  0.4719506  0.0017338  0.0131763

 Al 
  0.4949087  0.2573684  0.2592297

 Al 
  0.7484431  0.9901082  0.2628905

 Al 
  0.7517313  0.2269578  0.0082756

 Al 
  0.0020358  0.5214853  0.0004901

 Al 
  0.9863522  0.7534949  0.2400896

 Al 
  0.2448196  0.5058376  0.2380934

 Al 
  0.2624029  0.7489283  0.0109165

 Al 
  0.9933716  0.9936451  0.4862977

 Al 
  0.0123323  0.2649349  0.7482080

 Al 
  0.2426984  0.9976833  0.7517994

 Al 
  0.2463170  0.2509467  0.4955225

 Al 
  0.9950101  0.5127865  0.4942292

 Al 
  0.0026533  0.7385847  0.7575491

 Al 
  0.2499319  0.4868955  0.7266113

 Al 
  0.2515742  0.7528167  0.4996349

 Al 
  0.5070058  0.4935003  0.9918692

 Al 
  0.4940535  0.7468158  0.2551928

 Al 
  0.7669843  0.4950795  0.2411725

 Al 
  0.7424447  0.7456339  0.9952626

 Al 
  0.5080169  0.9958232  0.5150116

 Al 
  0.4976016  0.2427120  0.7624932

 Al 
  0.7444075  0.9936266  0.7604859

 Al 
  0.7561668  0.2573412  0.5035543

 Al 
  0.5146775  0.4960435  0.4894683

 Al 
  0.4992092  0.7360279  0.7434966

 Al 
  0.7547126  0.5009715  0.7450757

 Al 
  0.7660574  0.7449124  0.5106517

