32 
charge = 0 
 Al 
  0.0105279  0.0152987  0.9878855

 Al 
  0.9964977  0.2609066  0.2581766

 Al 
  0.2388570  0.0014529  0.2520148

 Al 
  0.2473157  0.2692973  0.9954148

 Al 
  0.4698010  0.0030852  0.0150203

 Al 
  0.4932008  0.2574712  0.2579526

 Al 
  0.7484394  0.9872246  0.2625551

 Al 
  0.7519393  0.2255470  0.0095763

 Al 
  0.0026422  0.5200634  0.9991733

 Al 
  0.9859623  0.7538847  0.2417059

 Al 
  0.2450510  0.5050629  0.2381095

 Al 
  0.2644572  0.7495582  0.0120786

 Al 
  0.9958690  0.9927763  0.4850490

 Al 
  0.0095998  0.2670586  0.7466821

 Al 
  0.2424521  0.9988268  0.7517524

 Al 
  0.2460237  0.2516175  0.4943604

 Al 
  0.9965163  0.5151181  0.4950064

 Al 
  0.0020432  0.7387704  0.7577261

 Al 
  0.2498503  0.4879400  0.7264455

 Al 
  0.2512957  0.7516410  0.4981263

 Al 
  0.5064291  0.4921811  0.9910363

 Al 
  0.4935560  0.7485756  0.2555418

 Al 
  0.7676575  0.4940052  0.2423630

 Al 
  0.7440213  0.7450324  0.9936748

 Al 
  0.5079749  0.9948097  0.5156861

 Al 
  0.4992228  0.2428234  0.7634375

 Al 
  0.7432441  0.9934620  0.7597421

 Al 
  0.7568363  0.2575021  0.5041768

 Al 
  0.5154992  0.4970719  0.4896490

 Al 
  0.4981288  0.7366009  0.7444174

 Al 
  0.7534689  0.5010655  0.7448258

 Al 
  0.7656205  0.7442688  0.5106331

