32 
charge = 0 
 Al 
  0.0077459  0.0152121  0.9872779

 Al 
  0.9989233  0.2623236  0.2596035

 Al 
  0.2398470  0.0008193  0.2515135

 Al 
  0.2489159  0.2663791  0.9962069

 Al 
  0.4660821  0.0063338  0.0188778

 Al 
  0.4895191  0.2572620  0.2547324

 Al 
  0.7480100  0.9811754  0.2612247

 Al 
  0.7522338  0.2230793  0.0125056

 Al 
  0.0040357  0.5158891  0.9959878

 Al 
  0.9857953  0.7547956  0.2453554

 Al 
  0.2457898  0.5032771  0.2389213

 Al 
  0.2682813  0.7506856  0.0138260

 Al 
  0.0018254  0.9912603  0.4832743

 Al 
  0.0025704  0.2712390  0.7432367

 Al 
  0.2421291  0.0013910  0.7511249

 Al 
  0.2456512  0.2529417  0.4917653

 Al 
  0.0006262  0.5198975  0.4965967

 Al 
  0.0010371  0.7400488  0.7577991

 Al 
  0.2502846  0.4912876  0.7266856

 Al 
  0.2505693  0.7489369  0.4946525

 Al 
  0.5051285  0.4895216  0.9895970

 Al 
  0.4930090  0.7524739  0.2564118

 Al 
  0.7681922  0.4919113  0.2450597

 Al 
  0.7475447  0.7439100  0.9904869

 Al 
  0.5073660  0.9926947  0.5166960

 Al 
  0.5030159  0.2430981  0.7649844

 Al 
  0.7410995  0.9931823  0.7579055

 Al 
  0.7583164  0.2573128  0.5055641

 Al 
  0.5166935  0.4995817  0.4904374

 Al 
  0.4953876  0.7381281  0.7467378

 Al 
  0.7505779  0.5008576  0.7446995

 Al 
  0.7637939  0.7430919  0.5102520

