32 
charge = 0 
 Al 
  0.0089897  0.0153557  0.9874387

 Al 
  0.9978417  0.2618274  0.2590750

 Al 
  0.2394213  0.0010680  0.2516781

 Al 
  0.2482810  0.2676773  0.9958517

 Al 
  0.4674447  0.0049243  0.0173048

 Al 
  0.4910413  0.2574204  0.2561433

 Al 
  0.7482674  0.9836506  0.2618856

 Al 
  0.7521435  0.2239988  0.0112593

 Al 
  0.0034355  0.5178197  0.9973628

 Al 
  0.9857334  0.7544193  0.2438270

 Al 
  0.2454371  0.5040345  0.2384474

 Al 
  0.2668185  0.7502710  0.0132419

 Al 
  0.9992562  0.9918234  0.4838411

 Al 
  0.0056804  0.2695770  0.7446896

 Al 
  0.2422281  0.0003044  0.7514838

 Al 
  0.2457527  0.2524083  0.4928481

 Al 
  0.9987649  0.5179620  0.4959581

 Al 
  0.0013935  0.7393495  0.7578251

 Al 
  0.2499926  0.4897084  0.7264702

 Al 
  0.2508873  0.7500866  0.4961339

 Al 
  0.5056742  0.4905821  0.9901230

 Al 
  0.4931340  0.7508453  0.2560269

 Al 
  0.7681402  0.4927380  0.2439211

 Al 
  0.7460621  0.7443505  0.9917603

 Al 
  0.5077174  0.9935548  0.5163618

 Al 
  0.5013898  0.2429793  0.7644386

 Al 
  0.7419224  0.9932862  0.7587100

 Al 
  0.7577014  0.2574947  0.5049911

 Al 
  0.5163074  0.4984914  0.4900463

 Al 
  0.4966041  0.7374375  0.7457094

 Al 
  0.7518229  0.5010136  0.7446748

 Al 
  0.7647159  0.7435362  0.5104710

