32 
charge = 0 
 Al 
  0.0085837  0.0153260  0.9873682

 Al 
  0.9981944  0.2620105  0.2592644

 Al 
  0.2395636  0.0009814  0.2516150

 Al 
  0.2485025  0.2672529  0.9959693

 Al 
  0.4669509  0.0053908  0.0178432

 Al 
  0.4905240  0.2573783  0.2556779

 Al 
  0.7481944  0.9828065  0.2616801

 Al 
  0.7521806  0.2236696  0.0116752

 Al 
  0.0036335  0.5171996  0.9969049

 Al 
  0.9857309  0.7545493  0.2443443

 Al 
  0.2455485  0.5037795  0.2385847

 Al 
  0.2673370  0.7504208  0.0134634

 Al 
  0.0001101  0.9916217  0.4836196

 Al 
  0.0046582  0.2701525  0.7442008

 Al 
  0.2421885  0.0006683  0.7513799

 Al 
  0.2457094  0.2525915  0.4924818

 Al 
  0.9993688  0.5186253  0.4961784

 Al 
  0.0012611  0.7395574  0.7578263

 Al 
  0.2500718  0.4902109  0.7265222

 Al 
  0.2507809  0.7497017  0.4956401

 Al 
  0.5054898  0.4902146  0.9899324

 Al 
  0.4930734  0.7513960  0.2561519

 Al 
  0.7681872  0.4924509  0.2443035

 Al 
  0.7465608  0.7441971  0.9913197

 Al 
  0.5076160  0.9932602  0.5164905

 Al 
  0.5019318  0.2430189  0.7646404

 Al 
  0.7416328  0.9932491  0.7584451

 Al 
  0.7579105  0.2574514  0.5051866

 Al 
  0.5164571  0.4988528  0.4901688

 Al 
  0.4962056  0.7376615  0.7460460

 Al 
  0.7514108  0.5009727  0.7446698

 Al 
  0.7644325  0.7433778  0.5104067

