32 
charge = 0 
 Al 
  0.0073152  0.0151280  0.9872568

 Al 
  0.9992983  0.2624536  0.2597520

 Al 
  0.2399881  0.0007425  0.2514764

 Al 
  0.2491052  0.2659311  0.9963282

 Al 
  0.4657071  0.0068115  0.0193753

 Al 
  0.4890315  0.2571890  0.2542535

 Al 
  0.7478999  0.9803896  0.2609747

 Al 
  0.7522499  0.2228182  0.0129226

 Al 
  0.0042399  0.5151973  0.9955274

 Al 
  0.9858646  0.7549094  0.2458492

 Al 
  0.2459210  0.5030296  0.2391194

 Al 
  0.2687082  0.7507982  0.0139659

 Al 
  0.0026880  0.9910995  0.4831506

 Al 
  0.0015049  0.2717526  0.7427615

 Al 
  0.2421081  0.0017524  0.7509752

 Al 
  0.2456376  0.2531100  0.4914175

 Al 
  0.0012796  0.5205064  0.4967935

 Al 
  0.0009430  0.7403359  0.7577707

 Al 
  0.2504183  0.4918593  0.7267969

 Al 
  0.2504641  0.7485582  0.4941587

 Al 
  0.5049502  0.4891961  0.9894535

 Al 
  0.4930053  0.7530011  0.2565455

 Al 
  0.7681501  0.4916588  0.2454334

 Al 
  0.7480310  0.7437738  0.9900933

 Al 
  0.5072175  0.9924236  0.5167727

 Al 
  0.5035605  0.2431365  0.7651255

 Al 
  0.7408557  0.9931526  0.7576308

 Al 
  0.7585132  0.2572162  0.5057448

 Al 
  0.5167813  0.4999493  0.4905834

 Al 
  0.4949668  0.7383706  0.7470942

 Al 
  0.7501572  0.5007859  0.7447329

 Al 
  0.7634399  0.7429645  0.5101616

