32 
charge = 0 
 Al 
  0.0050406  0.0144176  0.9873868

 Al 
  0.0012945  0.2628273  0.2602804

 Al 
  0.2406799  0.0004109  0.2514244

 Al 
  0.2498515  0.2635575  0.9969123

 Al 
  0.4644535  0.0092656  0.0216450

 Al 
  0.4867432  0.2566816  0.2518081

 Al 
  0.7471573  0.9767252  0.2595032

 Al 
  0.7522140  0.2218356  0.0150587

 Al 
  0.0053153  0.5113546  0.9932206

 Al 
  0.9865836  0.7553636  0.2481795

 Al 
  0.2466932  0.5018291  0.2403891

 Al 
  0.2703740  0.7511423  0.0142728

 Al 
  0.0070541  0.9905091  0.4830268

 Al 
  0.9959705  0.2740285  0.7404497

 Al 
  0.2420833  0.0035827  0.7499938

 Al 
  0.2457366  0.2539169  0.4898050

 Al 
  0.0048055  0.5232922  0.4976660

 Al 
  0.0006782  0.7421984  0.7574873

 Al 
  0.2513390  0.4950473  0.7276830

 Al 
  0.2499653  0.7466870  0.4916724

 Al 
  0.5040864  0.4877877  0.9889981

 Al 
  0.4932738  0.7555171  0.2572657

 Al 
  0.7674868  0.4905574  0.2472811

 Al 
  0.7504257  0.7431464  0.9883620

 Al 
  0.5062237  0.9911935  0.5168915

 Al 
  0.5063091  0.2433196  0.7655128

 Al 
  0.7398594  0.9930375  0.7561891

 Al 
  0.7594067  0.2564514  0.5065343

 Al 
  0.5168989  0.5018229  0.4914039

 Al 
  0.4927256  0.7397196  0.7490100

 Al 
  0.7479642  0.5002908  0.7451030

 Al 
  0.7613064  0.7424843  0.5095824

