32 
charge = 0 
 Al 
  0.9999220  0.0113720  0.9888298

 Al 
  0.0058462  0.2621863  0.2601691

 Al 
  0.2419831  0.9999455  0.2520482

 Al 
  0.2499344  0.2581085  0.9977093

 Al 
  0.4654559  0.0143483  0.0248292

 Al 
  0.4831060  0.2551322  0.2469160

 Al 
  0.7447577  0.9708022  0.2554403

 Al 
  0.7514220  0.2215967  0.0198616

 Al 
  0.0078709  0.5015754  0.9885946

 Al 
  0.9900945  0.7553265  0.2518898

 Al 
  0.2490384  0.4997686  0.2441525

 Al 
  0.2711957  0.7505581  0.0129350

 Al 
  0.0159646  0.9904720  0.4854834

 Al 
  0.9841654  0.2770816  0.7362185

 Al 
  0.2423692  0.0076358  0.7469061

 Al 
  0.2469420  0.2555232  0.4876095

 Al 
  0.0129635  0.5274083  0.4988466

 Al 
  0.0011930  0.7483516  0.7561482

 Al 
  0.2544082  0.5028885  0.7314341

 Al 
  0.2494839  0.7432417  0.4864734

 Al 
  0.5024355  0.4862148  0.9896428

 Al 
  0.4952762  0.7597470  0.2589451

 Al 
  0.7638211  0.4891676  0.2509245

 Al 
  0.7551495  0.7419323  0.9861690

 Al 
  0.5028241  0.9895117  0.5155871

 Al 
  0.5120105  0.2436513  0.7644919

 Al 
  0.7390228  0.9929335  0.7528551

 Al 
  0.7603980  0.2532696  0.5070888

 Al 
  0.5153916  0.5055938  0.4934001

 Al 
  0.4875019  0.7433964  0.7537461

 Al 
  0.7428518  0.4988788  0.7468702

 Al 
  0.7552002  0.7423816  0.5077830

