32 
charge = 0 
 Al 
  0.0015234  0.0125291  0.9882308

 Al 
  0.0044206  0.2625761  0.2603794

 Al 
  0.2416031  0.0000644  0.2517586

 Al 
  0.2501485  0.2598337  0.9975558

 Al 
  0.4646144  0.0128447  0.0241127

 Al 
  0.4840330  0.2556507  0.2483367

 Al 
  0.7455881  0.9723553  0.2568066

 Al 
  0.7517710  0.2214061  0.0183345

 Al 
  0.0070467  0.5047968  0.9899708

 Al 
  0.9887419  0.7555022  0.2509467

 Al 
  0.2482055  0.5003205  0.2428828

 Al 
  0.2713244  0.7509245  0.0136008

 Al 
  0.0133063  0.9903074  0.4843424

 Al 
  0.9877469  0.2763984  0.7374128

 Al 
  0.2422430  0.0063462  0.7479753

 Al 
  0.2464210  0.2550270  0.4880711

 Al 
  0.0104104  0.5264182  0.4985694

 Al 
  0.0008886  0.7461512  0.7566606

 Al 
  0.2533303  0.5003688  0.7300010

 Al 
  0.2495062  0.7441995  0.4880637

 Al 
  0.5029244  0.4864920  0.9892010

 Al 
  0.4944780  0.7586258  0.2584229

 Al 
  0.7652468  0.4894671  0.2498404

 Al 
  0.7537387  0.7423123  0.9866306

 Al 
  0.5040518  0.9898805  0.5162183

 Al 
  0.5102854  0.2435511  0.7650735

 Al 
  0.7390995  0.9929533  0.7539255

 Al 
  0.7602606  0.2544750  0.5071271

 Al 
  0.5161056  0.5044899  0.4927627

 Al 
  0.4891590  0.7421217  0.7521831

 Al 
  0.7445027  0.4993268  0.7461970

 Al 
  0.7572732  0.7422838  0.5084080

