32 
charge = 0 
 Al 
  0.0025655  0.0131825  0.9879090

 Al 
  0.0034924  0.2627419  0.2604327

 Al 
  0.2413457  0.0001510  0.2516125

 Al 
  0.2501708  0.2609450  0.9974061

 Al 
  0.4643198  0.0118187  0.0235087

 Al 
  0.4847384  0.2559762  0.2493193

 Al 
  0.7460955  0.9735063  0.2576518

 Al 
  0.7519504  0.2214098  0.0173556

 Al 
  0.0065220  0.5068153  0.9908977

 Al 
  0.9879820  0.7555356  0.2502277

 Al 
  0.2477142  0.5007240  0.2420945

 Al 
  0.2712267  0.7510767  0.0139226

 Al 
  0.0115130  0.9902851  0.4837780

 Al 
  0.9901354  0.2758255  0.7382518

 Al 
  0.2421774  0.0055232  0.7486251

 Al 
  0.2461524  0.2547052  0.4884845

 Al 
  0.0087421  0.5256287  0.4983479

 Al 
  0.0007574  0.7448517  0.7569502

 Al 
  0.2526818  0.4987562  0.7291966

 Al 
  0.2495916  0.7448839  0.4891132

 Al 
  0.5032523  0.4867742  0.9890302

 Al 
  0.4940362  0.7577979  0.2580788

 Al 
  0.7660450  0.4897245  0.2491102

 Al 
  0.7527932  0.7425548  0.9870365

 Al 
  0.5047708  0.9901985  0.5165202

 Al 
  0.5091344  0.2434867  0.7653260

 Al 
  0.7392369  0.9929694  0.7546062

 Al 
  0.7600812  0.2551569  0.5070405

 Al 
  0.5164534  0.5037325  0.4923531

 Al 
  0.4902282  0.7413606  0.7512091

 Al 
  0.7455473  0.4996238  0.7458158

 Al 
  0.7585478  0.7422813  0.5087855

