32 
charge = 0 
 Al 
  0.9988429  0.0104896  0.9893037

 Al 
  0.0068054  0.2618373  0.2599401

 Al 
  0.2422306  0.9998738  0.2522858

 Al 
  0.2496621  0.2569328  0.9977538

 Al 
  0.4662876  0.0152963  0.0251584

 Al 
  0.4825900  0.2547770  0.2460311

 Al 
  0.7441736  0.9698988  0.2544763

 Al 
  0.7511348  0.2218566  0.0209111

 Al 
  0.0084365  0.4993255  0.9877011

 Al 
  0.9911254  0.7551223  0.2524145

 Al 
  0.2496572  0.4994468  0.2450386

 Al 
  0.2709222  0.7502240  0.0123793

 Al 
  0.0176848  0.9906713  0.4864376

 Al 
  0.9818214  0.2774033  0.7354784

 Al 
  0.2424707  0.0085318  0.7461475

 Al 
  0.2473702  0.2558636  0.4874251

 Al 
  0.0146614  0.5279182  0.4989976

 Al 
  0.0014628  0.7499703  0.7557547

 Al 
  0.2551841  0.5046074  0.7325392

 Al 
  0.2495570  0.7426699  0.4854141

 Al 
  0.5021125  0.4861319  0.9900661

 Al 
  0.4958851  0.7603955  0.2592842

 Al 
  0.7627320  0.4890278  0.2516336

 Al 
  0.7560789  0.7416613  0.9859660

 Al 
  0.5019120  0.9893471  0.5150475

 Al 
  0.5131429  0.2437194  0.7639696

 Al 
  0.7390637  0.9929236  0.7521162

 Al 
  0.7603844  0.2523489  0.5069328

 Al 
  0.5147876  0.5062881  0.4938382

 Al 
  0.4863794  0.7443369  0.7548463

 Al 
  0.7417059  0.4985929  0.7473788

 Al 
  0.7537350  0.7425103  0.5073326

