32 
charge = 0 
 Al 
  0.0004604  0.0117804  0.9886144

 Al 
  0.0053685  0.2623348  0.2602569

 Al 
  0.2418568  0.9999839  0.2519417

 Al 
  0.2500309  0.2586902  0.9976697

 Al 
  0.4651218  0.0138545  0.0246188

 Al 
  0.4833969  0.2553079  0.2473801

 Al 
  0.7450423  0.9712947  0.2559069

 Al 
  0.7515494  0.2215064  0.0193456

 Al 
  0.0075912  0.5026731  0.9890500

 Al 
  0.9896169  0.7554020  0.2515952

 Al 
  0.2487476  0.4999443  0.2437206

 Al 
  0.2712762  0.7506980  0.0131800

 Al 
  0.0150859  0.9904002  0.4850639

 Al 
  0.9853547  0.2768786  0.7366071

 Al 
  0.2423234  0.0071989  0.7472736

 Al 
  0.2467526  0.2553562  0.4877407

 Al 
  0.0121095  0.5271063  0.4987612

 Al 
  0.0010779  0.7475855  0.7563289

 Al 
  0.2540369  0.5020383  0.7309254

 Al 
  0.2494753  0.7435486  0.4870044

 Al 
  0.5025976  0.4862866  0.9894708

 Al 
  0.4949928  0.7593919  0.2587718

 Al 
  0.7643260  0.4892555  0.2505656

 Al 
  0.7546817  0.7420623  0.9863027

 Al 
  0.5032523  0.9896193  0.5158210

 Al 
  0.5114376  0.2436167  0.7647134

 Al 
  0.7390302  0.9929397  0.7532177

 Al 
  0.7603720  0.2536954  0.5071259

 Al 
  0.5156552  0.5052324  0.4931847

 Al 
  0.4880600  0.7429533  0.7532127

 Al 
  0.7434125  0.4990273  0.7466326

 Al 
  0.7559106  0.7423358  0.5079984

