32 
charge = 0 
 Al 
  0.9938332  0.0051780  0.9923197

 Al 
  0.0111517  0.2592632  0.2579018

 Al 
  0.2434446  0.9995570  0.2537238

 Al 
  0.2469110  0.2512227  0.9970967

 Al 
  0.4732761  0.0185461  0.0245978

 Al 
  0.4815294  0.2531706  0.2430610

 Al 
  0.7414707  0.9674422  0.2495867

 Al 
  0.7492352  0.2247191  0.0260049

 Al 
  0.0110799  0.4880513  0.9839204

 Al 
  0.9971907  0.7531966  0.2535134

 Al 
  0.2533043  0.4985174  0.2492649

 Al 
  0.2674360  0.7477984  0.0088251

 Al 
  0.0246300  0.9926885  0.4929991

 Al 
  0.9719902  0.2771100  0.7328301

 Al 
  0.2432107  0.0131850  0.7424001

 Al 
  0.2503490  0.2575900  0.4882852

 Al 
  0.0219049  0.5281644  0.4994530

 Al 
  0.0034429  0.7589859  0.7533649

 Al 
  0.2592211  0.5126578  0.7394164

 Al 
  0.2513093  0.7411452  0.4807064

 Al 
  0.5006064  0.4869437  0.9935473

 Al 
  0.4993169  0.7619821  0.2604648

 Al 
  0.7562980  0.4890538  0.2547275

 Al 
  0.7602272  0.7400030  0.9862829

 Al 
  0.4966524  0.9897456  0.5112024

 Al 
  0.5178828  0.2441216  0.7599970

 Al 
  0.7403074  0.9928481  0.7484258

 Al 
  0.7587780  0.2466994  0.5042263

 Al 
  0.5104661  0.5087558  0.4960522

 Al 
  0.4813165  0.7500421  0.7605119

 Al 
  0.7358930  0.4977786  0.7503317

 Al 
  0.7463356  0.7438345  0.5049602

