32 
charge = 0 
 Al 
  0.9947354  0.0063066  0.9916601

 Al 
  0.0103881  0.2598584  0.2584006

 Al 
  0.2432033  0.9996176  0.2534330

 Al 
  0.2476103  0.2522994  0.9973516

 Al 
  0.4715744  0.0181600  0.0250248

 Al 
  0.4815244  0.2534441  0.2434075

 Al 
  0.7419261  0.9676328  0.2505185

 Al 
  0.7496535  0.2239592  0.0250606

 Al 
  0.0106133  0.4901849  0.9845490

 Al 
  0.9959284  0.7536768  0.2535060

 Al 
  0.2525296  0.4986065  0.2485087

 Al 
  0.2683865  0.7483441  0.0095775

 Al 
  0.0235471  0.9921625  0.4915239

 Al 
  0.9735954  0.2774368  0.7331964

 Al 
  0.2430263  0.0122593  0.7430833

 Al 
  0.2496634  0.2572534  0.4878682

 Al 
  0.0207242  0.5284441  0.4993886

 Al 
  0.0029838  0.7571618  0.7538785

 Al 
  0.2584464  0.5112111  0.7379226

 Al 
  0.2507611  0.7412343  0.4815121

 Al 
  0.5008861  0.4866331  0.9926996

 Al 
  0.4986350  0.7619165  0.2603349

 Al 
  0.7576444  0.4889585  0.2541916

 Al 
  0.7594971  0.7403792  0.9860477

 Al 
  0.4977476  0.9894919  0.5120823

 Al 
  0.5171204  0.2440349  0.7609314

 Al 
  0.7399374  0.9928679  0.7491312

 Al 
  0.7593127  0.2479221  0.5050356

 Al 
  0.5114673  0.5084340  0.4956166

 Al 
  0.4821841  0.7487884  0.7594166

 Al 
  0.7370130  0.4978244  0.7497203

 Al 
  0.7477353  0.7434941  0.5054230

