32 
charge = 0 
 Al 
  0.9922529  0.0029392  0.9936674

 Al 
  0.0124548  0.2580095  0.2568450

 Al 
  0.2439322  0.9994456  0.2542473

 Al 
  0.2454049  0.2492191  0.9964135

 Al 
  0.4769405  0.0188481  0.0232885

 Al 
  0.4818474  0.2527226  0.2427900

 Al 
  0.7407789  0.9675214  0.2478887

 Al 
  0.7483949  0.2264554  0.0276905

 Al 
  0.0118583  0.4841716  0.9829055

 Al 
  0.9996535  0.7521608  0.2532313

 Al 
  0.2548550  0.4984691  0.2505520

 Al 
  0.2652332  0.7467093  0.0073808

 Al 
  0.0262289  0.9938914  0.4960163

 Al 
  0.9694421  0.2760569  0.7323511

 Al 
  0.2436525  0.0149807  0.7412430

 Al 
  0.2517932  0.2582298  0.4894597

 Al 
  0.0237389  0.5271261  0.4995768

 Al 
  0.0044181  0.7624697  0.7523241

 Al 
  0.2606307  0.5151663  0.7424397

 Al 
  0.2526719  0.7413135  0.4793958

 Al 
  0.5000990  0.4877358  0.9953851

 Al 
  0.5005841  0.7617172  0.2605007

 Al 
  0.7536508  0.4893594  0.2556470

 Al 
  0.7614809  0.7391874  0.9869660

 Al 
  0.4945040  0.9905091  0.5093758

 Al 
  0.5190399  0.2442961  0.7580169

 Al 
  0.7411749  0.9928098  0.7471115

 Al 
  0.7574167  0.2442070  0.5022313

 Al 
  0.5083523  0.5091035  0.4969061

 Al 
  0.4799144  0.7526781  0.7625328

 Al 
  0.7338028  0.4979060  0.7515185

 Al 
  0.7437986  0.7445869  0.5041013

