32 
charge = 0 
 Al 
  0.9902579  0.9992896  0.9960336

 Al 
  0.0140216  0.2556915  0.2549923

 Al 
  0.2448233  0.9993033  0.2548413

 Al 
  0.2427491  0.2461611  0.9947713

 Al 
  0.4837322  0.0179174  0.0197107

 Al 
  0.4832409  0.2522016  0.2435944

 Al 
  0.7403656  0.9689991  0.2455633

 Al 
  0.7470323  0.2300183  0.0298574

 Al 
  0.0126491  0.4789144  0.9819353

 Al 
  0.0035629  0.7502339  0.2519628

 Al 
  0.2574415  0.4987179  0.2519702

 Al 
  0.2605985  0.7450052  0.0053042

 Al 
  0.0272041  0.9963999  0.5011163

 Al 
  0.9670388  0.2730236  0.7321915

 Al 
  0.2446970  0.0178952  0.7400339

 Al 
  0.2544193  0.2591901  0.4924199

 Al 
  0.0252574  0.5240174  0.4998490

 Al 
  0.0062460  0.7677058  0.7505223

 Al 
  0.2625006  0.5182169  0.7475583

 Al 
  0.2557101  0.7426377  0.4782040

 Al 
  0.4993750  0.4895166  0.9988862

 Al 
  0.5023761  0.7600738  0.2597359

 Al 
  0.7493602  0.4902096  0.2568140

 Al 
  0.7629647  0.7375699  0.9887072

 Al 
  0.4910747  0.9925907  0.5061643

 Al 
  0.5198183  0.2445770  0.7544156

 Al 
  0.7429187  0.9927615  0.7451735

 Al 
  0.7542646  0.2398458  0.4976957

 Al 
  0.5045134  0.5088176  0.4983751

 Al 
  0.4786780  0.7576345  0.7653619

 Al 
  0.7307596  0.4988305  0.7533526

 Al 
  0.7403470  0.7460324  0.5028885

