32 
charge = 0 
 Al 
  0.9919076  0.0023910  0.9940065

 Al 
  0.0127333  0.2576865  0.2565752

 Al 
  0.2440547  0.9994196  0.2543599

 Al 
  0.2450176  0.2487501  0.9962106

 Al 
  0.4778934  0.0188258  0.0228714

 Al 
  0.4819860  0.2526298  0.2428098

 Al 
  0.7406564  0.9676316  0.2475038

 Al 
  0.7481882  0.2269281  0.0280630

 Al 
  0.0120180  0.4832966  0.9827051

 Al 
  0.0002475  0.7518922  0.2531050

 Al 
  0.2552386  0.4984815  0.2508205

 Al 
  0.2646268  0.7464445  0.0070442

 Al 
  0.0265074  0.9942193  0.4967700

 Al 
  0.9689446  0.2757128  0.7322793

 Al 
  0.2437800  0.0154151  0.7410029

 Al 
  0.2521645  0.2583808  0.4898173

 Al 
  0.0240842  0.5267759  0.4996102

 Al 
  0.0046706  0.7632914  0.7520643

 Al 
  0.2609462  0.5157071  0.7431909

 Al 
  0.2530617  0.7414274  0.4791372

 Al 
  0.4999827  0.4879635  0.9958678

 Al 
  0.5008750  0.7615712  0.2604586

 Al 
  0.7530073  0.4894572  0.2558462

 Al 
  0.7617482  0.7389708  0.9871764

 Al 
  0.4939830  0.9907505  0.5089142

 Al 
  0.5192490  0.2443382  0.7575071

 Al 
  0.7414113  0.9927999  0.7468059

 Al 
  0.7570207  0.2435808  0.5016608

 Al 
  0.5078090  0.5091295  0.4971165

 Al 
  0.4796396  0.7533600  0.7629944

 Al 
  0.7333189  0.4979840  0.7518031

 Al 
  0.7432268  0.7447861  0.5039033

