32 
charge = 0 
 Al 
  0.9926179  0.0034924  0.9933283

 Al 
  0.0121578  0.2583288  0.2571135

 Al 
  0.2438085  0.9994716  0.2541260

 Al 
  0.2457898  0.2497005  0.9966041

 Al 
  0.4760000  0.0188308  0.0236709

 Al 
  0.4817311  0.2528229  0.2428048

 Al 
  0.7409212  0.9674459  0.2482897

 Al 
  0.7486028  0.2259975  0.0272969

 Al 
  0.0116851  0.4850874  0.9831283

 Al 
  0.9990496  0.7524269  0.2533365

 Al 
  0.2544701  0.4984667  0.2502611

 Al 
  0.2658185  0.7469779  0.0077298

 Al 
  0.0259009  0.9935733  0.4952614

 Al 
  0.9699953  0.2763687  0.7324402

 Al 
  0.2435325  0.0145401  0.7415029

 Al 
  0.2514257  0.2580751  0.4891255

 Al 
  0.0233479  0.5274429  0.4995458

 Al 
  0.0041681  0.7616257  0.7525853

 Al 
  0.2602990  0.5145896  0.7416848

 Al 
  0.2523006  0.7412282  0.4796829

 Al 
  0.5002190  0.4875192  0.9949111

 Al 
  0.5002822  0.7618323  0.2605218

 Al 
  0.7543030  0.4892703  0.2554354

 Al 
  0.7611938  0.7393990  0.9867705

 Al 
  0.4950324  0.9902864  0.5098374

 Al 
  0.5187986  0.2442528  0.7585219

 Al 
  0.7409460  0.9928197  0.7474259

 Al 
  0.7577905  0.2448332  0.5027759

 Al 
  0.5088919  0.5090528  0.4966945

 Al 
  0.4802200  0.7520049  0.7620514

 Al 
  0.7343040  0.4978466  0.7512289

 Al 
  0.7443963  0.7443914  0.5043055

