32 
charge = 0 
 Al 
  0.9915821  0.0018514  0.9943456

 Al 
  0.0129932  0.2573598  0.2563066

 Al 
  0.2441797  0.9993961  0.2544651

 Al 
  0.2446302  0.2482922  0.9959965

 Al 
  0.4788550  0.0187652  0.0224222

 Al 
  0.4821469  0.2525444  0.2428617

 Al 
  0.7405549  0.9677788  0.2471363

 Al 
  0.7479852  0.2274145  0.0284157

 Al 
  0.0121615  0.4824613  0.9825244

 Al 
  0.0008304  0.7516200  0.2529578

 Al 
  0.2556173  0.4985025  0.2510680

 Al 
  0.2640005  0.7461871  0.0067175

 Al 
  0.0267400  0.9945584  0.4975174

 Al 
  0.9685003  0.2753391  0.7322261

 Al 
  0.2439137  0.0158433  0.7407851

 Al 
  0.2525382  0.2585268  0.4901985

 Al 
  0.0243862  0.5263910  0.4996436

 Al 
  0.0049267  0.7640909  0.7518056

 Al 
  0.2612470  0.5162121  0.7439372

 Al 
  0.2534689  0.7415672  0.4789070

 Al 
  0.4998713  0.4882011  0.9963566

 Al 
  0.5011546  0.7613942  0.2603955

 Al 
  0.7523724  0.4895636  0.2560331

 Al 
  0.7619982  0.7387493  0.9874004

 Al 
  0.4934719  0.9910116  0.5084526

 Al 
  0.5194248  0.2443802  0.7569947

 Al 
  0.7416526  0.9927912  0.7465101

 Al 
  0.7566061  0.2429546  0.5010618

 Al 
  0.5072633  0.5091332  0.4973256

 Al 
  0.4793983  0.7540518  0.7634387

 Al 
  0.7328499  0.4980805  0.7520803

 Al 
  0.7426811  0.7449879  0.5037139

