32 
charge = 0 
 Al 
  0.9898656  0.9983404  0.9967056

 Al 
  0.0143161  0.2550059  0.2544948

 Al 
  0.2450955  0.9992835  0.2549144

 Al 
  0.2420524  0.2453666  0.9942243

 Al 
  0.4856864  0.0173407  0.0184323

 Al 
  0.4837916  0.2520890  0.2440845

 Al 
  0.7404374  0.9696970  0.2450584

 Al 
  0.7466895  0.2311321  0.0302807

 Al 
  0.0127333  0.4777919  0.9818412

 Al 
  0.0045654  0.7496733  0.2514640

 Al 
  0.2581308  0.4988466  0.2521769

 Al 
  0.2591245  0.7445968  0.0048512

 Al 
  0.0270816  0.9972019  0.5024640

 Al 
  0.9667764  0.2719024  0.7322694

 Al 
  0.2450683  0.0186748  0.7398953

 Al 
  0.2551668  0.2594216  0.4934360

 Al 
  0.0253304  0.5228887  0.4999505

 Al 
  0.0067917  0.7689582  0.7500161

 Al 
  0.2628843  0.5187837  0.7489394

 Al 
  0.2566742  0.7432206  0.4781347

 Al 
  0.4992030  0.4900908  0.9999282

 Al 
  0.5027858  0.7593572  0.2593052

 Al 
  0.7482340  0.4905227  0.2570640

 Al 
  0.7632234  0.7370687  0.9893062

 Al 
  0.4902010  0.9933407  0.5052658

 Al 
  0.5197564  0.2446475  0.7533884

 Al 
  0.7434384  0.9927590  0.7447045

 Al 
  0.7532226  0.2386169  0.4961945

 Al 
  0.5034206  0.5085516  0.4988033

 Al 
  0.4786162  0.7591233  0.7659893

 Al 
  0.7300443  0.4992476  0.7537993

 Al 
  0.7395933  0.7464581  0.5026162

