32 
charge = 0 
 Al 
  0.9889758  0.9947069  0.9996980

 Al 
  0.0149708  0.2517932  0.2525877

 Al 
  0.2464742  0.9993726  0.2546186

 Al 
  0.2396577  0.2420499  0.9915821

 Al 
  0.4941810  0.0133842  0.0116616

 Al 
  0.4867940  0.2515309  0.2473219

 Al 
  0.7416786  0.9740372  0.2436538

 Al 
  0.7454817  0.2365279  0.0310430

 Al 
  0.0123014  0.4747970  0.9823759

 Al 
  0.0083993  0.7471177  0.2488070

 Al 
  0.2608534  0.4996027  0.2520989

 Al 
  0.2519244  0.7433258  0.0036954

 Al 
  0.0246040  0.0012239  0.5075417

 Al 
  0.9673840  0.2656713  0.7330825

 Al 
  0.2471746  0.0218529  0.7404077

 Al 
  0.2583523  0.2602136  0.4986300

 Al 
  0.0240359  0.5169286  0.5005606

 Al 
  0.0093498  0.7730855  0.7477934

 Al 
  0.2638359  0.5198493  0.7545369

 Al 
  0.2610947  0.7466462  0.4793290

 Al 
  0.4985335  0.4929224  0.0047275

 Al 
  0.5041520  0.7550777  0.2561247

 Al 
  0.7437936  0.4923284  0.2578907

 Al 
  0.7635439  0.7346703  0.9924434

 Al 
  0.4869870  0.9973937  0.5013873

 Al 
  0.5180796  0.2449173  0.7489580

 Al 
  0.7457143  0.9928754  0.7430412

 Al 
  0.7480731  0.2332818  0.4886355

 Al 
  0.4987278  0.5065653  0.5008675

 Al 
  0.4797956  0.7661044  0.7678259

 Al 
  0.7277041  0.5017809  0.7553017

 Al 
  0.7373707  0.7483652  0.5017660

