32 
charge = 0 
 Al 
  0.9892023  0.9961846  0.9983776

 Al 
  0.0148050  0.2532449  0.2533600

 Al 
  0.2458257  0.9992934  0.2548834

 Al 
  0.2405450  0.2434805  0.9927714

 Al 
  0.4904918  0.0153879  0.0148421

 Al 
  0.4853807  0.2518081  0.2457094

 Al 
  0.7409534  0.9718937  0.2441043

 Al 
  0.7459445  0.2340614  0.0309403

 Al 
  0.0126590  0.4757203  0.9819514

 Al 
  0.0068375  0.7482575  0.2500408

 Al 
  0.2597297  0.4992414  0.2523254

 Al 
  0.2552126  0.7437652  0.0040307

 Al 
  0.0260693  0.9993614  0.5055146

 Al 
  0.9667962  0.2686550  0.7326407

 Al 
  0.2461512  0.0205163  0.7399559

 Al 
  0.2569885  0.2599104  0.4962242

 Al 
  0.0249109  0.5197193  0.5002599

 Al 
  0.0081951  0.7715682  0.7487674

 Al 
  0.2635600  0.5196587  0.7521868

 Al 
  0.2591493  0.7449891  0.4784998

 Al 
  0.4988157  0.4916242  0.0025840

 Al 
  0.5036322  0.7571655  0.2577880

 Al 
  0.7456326  0.4914447  0.2575714

 Al 
  0.7635649  0.7357532  0.9909670

 Al 
  0.4882580  0.9954730  0.5030766

 Al 
  0.5190882  0.2448022  0.7508737

 Al 
  0.7447267  0.9927924  0.7436884

 Al 
  0.7504282  0.2356047  0.4921254

 Al 
  0.5007512  0.5075875  0.4999171

 Al 
  0.4789949  0.7629659  0.7672058

 Al 
  0.7285654  0.5005421  0.7547436

 Al 
  0.7381330  0.7475249  0.5020729

