32 
charge = 0 
 Al 
  0.9895475  0.9974395  0.9973764

 Al 
  0.0145525  0.2543092  0.2540208

 Al 
  0.2453777  0.9992760  0.2549403

 Al 
  0.2414039  0.2445968  0.9936550

 Al 
  0.4876269  0.0166427  0.0170598

 Al 
  0.4843956  0.2519801  0.2446711

 Al 
  0.7405871  0.9705027  0.2446240

 Al 
  0.7463702  0.2322793  0.0306136

 Al 
  0.0127531  0.4768390  0.9818276

 Al 
  0.0055158  0.7491090  0.2509195

 Al 
  0.2587929  0.4989926  0.2522982

 Al 
  0.2575949  0.7442292  0.0044701

 Al 
  0.0267932  0.9980397  0.5037436

 Al 
  0.9666762  0.2706747  0.7323907

 Al 
  0.2454755  0.0194310  0.7398507

 Al 
  0.2559056  0.2596332  0.4945139

 Al 
  0.0252611  0.5216747  0.5000644

 Al 
  0.0073462  0.7700943  0.7495124

 Al 
  0.2632023  0.5192243  0.7502760

 Al 
  0.2576593  0.7438790  0.4781892

 Al 
  0.4990409  0.4906898  0.0009839

 Al 
  0.5031533  0.7585454  0.2587743

 Al 
  0.7471561  0.4908680  0.2572843

 Al 
  0.7634115  0.7365514  0.9899436

 Al 
  0.4893805  0.9941513  0.5043810

 Al 
  0.5195745  0.2447119  0.7523712

 Al 
  0.7439570  0.9927652  0.7442713

 Al 
  0.7521336  0.2374016  0.4946154

 Al 
  0.5023390  0.5082137  0.4992401

 Al 
  0.4786793  0.7606430  0.7665351

 Al 
  0.7293995  0.4997253  0.7542077

 Al 
  0.7389387  0.7468863  0.5023761

