32 
charge = 0 
 Al 
  0.9896973  0.9978838  0.9970410

 Al 
  0.0144424  0.2546594  0.2542547

 Al 
  0.2452354  0.9992785  0.2549342

 Al 
  0.2417207  0.2449792  0.9939421

 Al 
  0.4866591  0.0170066  0.0177578

 Al 
  0.4840874  0.2520346  0.2443666

 Al 
  0.7405029  0.9700869  0.2448319

 Al 
  0.7465262  0.2317014  0.0304577

 Al 
  0.0127518  0.4772944  0.9818252

 Al 
  0.0050468  0.7493911  0.2511967

 Al 
  0.2584662  0.4989171  0.2522474

 Al 
  0.2583659  0.7444075  0.0046520

 Al 
  0.0269578  0.9976165  0.5031125

 Al 
  0.9667071  0.2713009  0.7323251

 Al 
  0.2452676  0.0190560  0.7398619

 Al 
  0.2555381  0.2595292  0.4939681

 Al 
  0.0253131  0.5222910  0.5000062

 Al 
  0.0070677  0.7695411  0.7497636

 Al 
  0.2630513  0.5190189  0.7496139

 Al 
  0.2571642  0.7435412  0.4781471

 Al 
  0.4991201  0.4903879  0.0004542

 Al 
  0.5029751  0.7589637  0.2590528

 Al 
  0.7476895  0.4906911  0.2571779

 Al 
  0.7633261  0.7368113  0.9896193

 Al 
  0.4897839  0.9937379  0.5048215

 Al 
  0.5196797  0.2446810  0.7528786

 Al 
  0.7436983  0.9927603  0.7444829

 Al 
  0.7526843  0.2380080  0.4954136

 Al 
  0.5028773  0.5083919  0.4990199

 Al 
  0.4786322  0.7598795  0.7662727

 Al 
  0.7297126  0.4994790  0.7540085

 Al 
  0.7392542  0.7466722  0.5024925

