32 
charge = 0 
 Al 
  0.9892988  0.9922900  0.0025172

 Al 
  0.0147406  0.2484803  0.2513588

 Al 
  0.2481387  0.9997797  0.2532065

 Al 
  0.2389362  0.2391218  0.9891800

 Al 
  0.5016497  0.0079984  0.0041632

 Al 
  0.4900661  0.2505544  0.2513663

 Al 
  0.7440411  0.9796099  0.2435672

 Al 
  0.7448938  0.2422355  0.0298401

 Al 
  0.0105651  0.4748639  0.9842904

 Al 
  0.0109561  0.7445473  0.2462069

 Al 
  0.2626924  0.5003898  0.2507487

 Al 
  0.2445597  0.7432132  0.0038265

 Al 
  0.0196735  0.0056185  0.5103609

 Al 
  0.9699532  0.2582570  0.7344748

 Al 
  0.2498379  0.0241374  0.7425622

 Al 
  0.2608225  0.2606789  0.5041594

 Al 
  0.0207180  0.5103757  0.5013440

 Al 
  0.0119685  0.7745186  0.7457366

 Al 
  0.2637580  0.5188988  0.7588461

 Al 
  0.2648532  0.7507079  0.4827471

 Al 
  0.4979333  0.4958851  0.0093102

 Al 
  0.5049663  0.7498787  0.2511633

 Al 
  0.7406057  0.4947218  0.2584996

 Al 
  0.7626590  0.7323895  0.9961178

 Al 
  0.4852297  0.0019999  0.4978318

 Al 
  0.5147084  0.2452626  0.7452403

 Al 
  0.7476276  0.9933134  0.7421675

 Al 
  0.7428716  0.2286087  0.4806371

 Al 
  0.4948381  0.5038006  0.5031669

 Al 
  0.4828004  0.7728788  0.7681105

 Al 
  0.7268427  0.5048364  0.7558623

 Al 
  0.7367977  0.7501485  0.5013898

