32 
charge = 0 
 Al 
  0.9892134  0.9924942  0.0022202

 Al 
  0.0148025  0.2488466  0.2514616

 Al 
  0.2479419  0.9997203  0.2534181

 Al 
  0.2389263  0.2394213  0.9894127

 Al 
  0.5008861  0.0086295  0.0049874

 Al 
  0.4897109  0.2506906  0.2509158

 Al 
  0.7437441  0.9789639  0.2435214

 Al 
  0.7449297  0.2416031  0.0300715

 Al 
  0.0108163  0.4747265  0.9840206

 Al 
  0.0107420  0.7448319  0.2464618

 Al 
  0.2625452  0.5003106  0.2509393

 Al 
  0.2453492  0.7431600  0.0037647

 Al 
  0.0203059  0.0051309  0.5101802

 Al 
  0.9696079  0.2590998  0.7342929

 Al 
  0.2495285  0.0239481  0.7422566

 Al 
  0.2606034  0.2606381  0.5035580

 Al 
  0.0211636  0.5110985  0.5012524

 Al 
  0.0116801  0.7744951  0.7459544

 Al 
  0.2638062  0.5190857  0.7584389

 Al 
  0.2644968  0.7502537  0.4822756

 Al 
  0.4979989  0.4955646  0.0088337

 Al 
  0.5048946  0.7504604  0.2517784

 Al 
  0.7408878  0.4944347  0.2584315

 Al 
  0.7628075  0.7326184  0.9956933

 Al 
  0.4853423  0.0014913  0.4982080

 Al 
  0.5151329  0.2452119  0.7455992

 Al 
  0.7474420  0.9932454  0.7422219

 Al 
  0.7434211  0.2290753  0.4815059

 Al 
  0.4952106  0.5041211  0.5029058

 Al 
  0.4824043  0.7721722  0.7681538

 Al 
  0.7268650  0.5044973  0.7558487

 Al 
  0.7367927  0.7499604  0.5014145

