32 
charge = 0 
 Al 
  0.9889548  0.9940572  0.0003478

 Al 
  0.0149869  0.2510581  0.2522536

 Al 
  0.2468207  0.9994357  0.2544032

 Al 
  0.2393396  0.2413593  0.9910004

 Al 
  0.4959507  0.0122680  0.0100082

 Al 
  0.4875241  0.2513613  0.2481956

 Al 
  0.7421291  0.9752067  0.2435288

 Al 
  0.7452973  0.2377890  0.0309490

 Al 
  0.0120229  0.4745693  0.9826939

 Al 
  0.0090862  0.7465460  0.2481882

 Al 
  0.2613522  0.4997871  0.2518860

 Al 
  0.2502599  0.7431897  0.0036285

 Al 
  0.0236820  0.0021892  0.5083907

 Al 
  0.9678296  0.2640822  0.7333461

 Al 
  0.2477315  0.0224605  0.7407604

 Al 
  0.2589859  0.2603398  0.4998639

 Al 
  0.0234456  0.5154831  0.5007240

 Al 
  0.0099339  0.7736424  0.7473182

 Al 
  0.2638954  0.5197923  0.7556173

 Al 
  0.2620229  0.7475261  0.4799144

 Al 
  0.4983986  0.4935857  0.0057893

 Al 
  0.5043698  0.7539577  0.2551532

 Al 
  0.7429657  0.4928172  0.2580330

 Al 
  0.7634412  0.7341320  0.9932243

 Al 
  0.4864574  0.9984035  0.5005656

 Al 
  0.5174410  0.2449792  0.7480496

 Al 
  0.7461821  0.9929397  0.7427739

 Al 
  0.7468863  0.2321642  0.4868497

 Al 
  0.4977711  0.5059898  0.5013638

 Al 
  0.4803364  0.7676674  0.7680201

 Al 
  0.7273835  0.5024442  0.7555121

 Al 
  0.7371157  0.7487773  0.5016497

