32 
charge = 0 
 Al 
  0.9903359  0.9912541  0.0046842

 Al 
  0.0139535  0.2456091  0.2507722

 Al 
  0.2497723  0.0003304  0.2510532

 Al 
  0.2397418  0.2370675  0.9877840

 Al 
  0.5071902  0.0029961  0.9980162

 Al 
  0.4927157  0.2492203  0.2546557

 Al 
  0.7465880  0.9848003  0.2442825

 Al 
  0.7447998  0.2471709  0.0271199

 Al 
  0.0081246  0.4768774  0.9868608

 Al 
  0.0120130  0.7422603  0.2447045

 Al 
  0.2632729  0.5008799  0.2490545

 Al 
  0.2387592  0.7442305  0.0045456

 Al 
  0.0141404  0.0093275  0.5105688

 Al 
  0.9730496  0.2516361  0.7362692

 Al 
  0.2522462  0.0248960  0.7454037

 Al 
  0.2619054  0.2609500  0.5086790

 Al 
  0.0165945  0.5048376  0.5020816

 Al 
  0.0142060  0.7735496  0.7440684

 Al 
  0.2630798  0.5168445  0.7615069

 Al 
  0.2670276  0.7542164  0.4871640

 Al 
  0.4974098  0.4982699  0.0126429

 Al 
  0.5054428  0.7455039  0.2459482

 Al 
  0.7390253  0.4970954  0.2591270

 Al 
  0.7611170  0.7309316  0.9996164

 Al 
  0.4851022  0.0057807  0.4949978

 Al 
  0.5111740  0.2458517  0.7429657

 Al 
  0.7488416  0.9940733  0.7421217

 Al 
  0.7389473  0.2255099  0.4742141

 Al 
  0.4925127  0.5013217  0.5052262

 Al 
  0.4862989  0.7777833  0.7670573

 Al 
  0.7273031  0.5073610  0.7555369

 Al 
  0.7373051  0.7515630  0.5012710

