32 
charge = 0 
 Al 
  0.9897418  0.9916415  0.0036496

 Al 
  0.0144102  0.2470323  0.2510173

 Al 
  0.2489431  0.0000408  0.2522289

 Al 
  0.2391849  0.2380130  0.9883719

 Al 
  0.5045381  0.0054700  0.0009727

 Al 
  0.4914385  0.2499394  0.2530964

 Al 
  0.7452861  0.9822125  0.2438592

 Al 
  0.7448084  0.2447342  0.0286718

 Al 
  0.0094352  0.4756831  0.9854883

 Al 
  0.0116306  0.7434063  0.2453245

 Al 
  0.2631231  0.5006670  0.2499257

 Al 
  0.2415351  0.7435907  0.0041495

 Al 
  0.0169942  0.0075244  0.5107408

 Al 
  0.9714358  0.2549069  0.7352903

 Al 
  0.2510668  0.0246931  0.7439038

 Al 
  0.2615217  0.2608250  0.5064923

 Al 
  0.0187788  0.5075479  0.5017115

 Al 
  0.0131033  0.7742835  0.7448901

 Al 
  0.2634808  0.5179867  0.7603027

 Al 
  0.2660933  0.7524986  0.4848225

 Al 
  0.4976697  0.4971251  0.0110923

 Al 
  0.5052250  0.7476103  0.2486053

 Al 
  0.7396626  0.4958975  0.2587892

 Al 
  0.7619623  0.7315727  0.9978479

 Al 
  0.4849946  0.0039664  0.4963777

 Al 
  0.5129536  0.2455114  0.7439632

 Al 
  0.7482922  0.9936451  0.7420586

 Al 
  0.7407938  0.2269083  0.4772920

 Al 
  0.4935251  0.5025308  0.5042077

 Al 
  0.4844847  0.7755136  0.7677454

 Al 
  0.7269331  0.5061482  0.7557943

 Al 
  0.7369536  0.7508750  0.5013143

