32 
charge = 0 
 Al 
  0.9895005  0.9919336  0.0030951

 Al 
  0.0145921  0.2477526  0.2511744

 Al 
  0.2485372  0.9999047  0.2527437

 Al 
  0.2390191  0.2385488  0.9887506

 Al 
  0.5031261  0.0067323  0.0025444

 Al 
  0.4907628  0.2502611  0.2522474

 Al 
  0.7446550  0.9809106  0.2436934

 Al 
  0.7448394  0.2434917  0.0293042

 Al 
  0.0100243  0.4752215  0.9848671

 Al 
  0.0113299  0.7439768  0.2457366

 Al 
  0.2629412  0.5005359  0.2503465

 Al 
  0.2430189  0.7433679  0.0039763

 Al 
  0.0183592  0.0065814  0.5106195

 Al 
  0.9706760  0.2565752  0.7348646

 Al 
  0.2504554  0.0244567  0.7432095

 Al 
  0.2612086  0.2607557  0.5053426

 Al 
  0.0197800  0.5089476  0.5015272

 Al 
  0.0125390  0.7744654  0.7453084

 Al 
  0.2636355  0.5184743  0.7596084

 Al 
  0.2655104  0.7516101  0.4837496

 Al 
  0.4978009  0.4965163  0.0102272

 Al 
  0.5051012  0.7487290  0.2499010

 Al 
  0.7400958  0.4953047  0.2586394

 Al 
  0.7623311  0.7319613  0.9969779

 Al 
  0.4850688  0.0029986  0.4970942

 Al 
  0.5138397  0.2453765  0.7445683

 Al 
  0.7479753  0.9934681  0.7420907

 Al 
  0.7418061  0.2277239  0.4789367

 Al 
  0.4941451  0.5031607  0.5036892

 Al 
  0.4836233  0.7742364  0.7679669

 Al 
  0.7268526  0.5055034  0.7558524

 Al 
  0.7368484  0.7505173  0.5013465

