32 
charge = 0 
 Al 
  0.9896169  0.9917789  0.0033761

 Al 
  0.0145055  0.2473912  0.2510928

 Al 
  0.2487402  0.9999715  0.2524925

 Al 
  0.2390921  0.2382766  0.9885550

 Al 
  0.5038402  0.0060999  0.0017512

 Al 
  0.4911032  0.2501027  0.2526768

 Al 
  0.7449681  0.9815616  0.2437726

 Al 
  0.7448208  0.2441142  0.0289998

 Al 
  0.0097359  0.4754406  0.9851728

 Al 
  0.0114895  0.7436921  0.2455225

 Al 
  0.2630414  0.5006027  0.2501386

 Al 
  0.2422689  0.7434706  0.0040604

 Al 
  0.0176835  0.0070566  0.5106975

 Al 
  0.9710509  0.2557386  0.7350725

 Al 
  0.2507623  0.0245854  0.7435511

 Al 
  0.2613757  0.2607915  0.5059217

 Al 
  0.0192874  0.5082434  0.5016200

 Al 
  0.0128224  0.7743911  0.7450980

 Al 
  0.2635624  0.5182380  0.7599636

 Al 
  0.2658123  0.7520568  0.4842768

 Al 
  0.4977353  0.4968232  0.0106666

 Al 
  0.5051656  0.7481647  0.2492562

 Al 
  0.7398706  0.4956005  0.2587124

 Al 
  0.7621516  0.7317608  0.9974123

 Al 
  0.4850205  0.0034875  0.4967328

 Al 
  0.5133979  0.2454408  0.7442577

 Al 
  0.7481375  0.9935535  0.7420685

 Al 
  0.7412937  0.2273068  0.4781063

 Al 
  0.4938258  0.5028439  0.5039491

 Al 
  0.4840503  0.7748861  0.7678655

 Al 
  0.7268836  0.5058289  0.7558289

 Al 
  0.7368955  0.7506967  0.5013291

