32 
charge = 0 
 Al 
  0.9908705  0.9911316  0.0053896

 Al 
  0.0135278  0.2445597  0.2506361

 Al 
  0.2504084  0.0005569  0.2500446

 Al 
  0.2403445  0.2364821  0.9875056

 Al 
  0.5090577  0.0012190  0.9959928

 Al 
  0.4935993  0.2486226  0.2556693

 Al 
  0.7475929  0.9867123  0.2446500

 Al 
  0.7448270  0.2489617  0.0256980

 Al 
  0.0070318  0.4779875  0.9879994

 Al 
  0.0121108  0.7413853  0.2444384

 Al 
  0.2631825  0.5009913  0.2483998

 Al 
  0.2368596  0.7448790  0.0048562

 Al 
  0.0119128  0.0105911  0.5100799

 Al 
  0.9743404  0.2492537  0.7371417

 Al 
  0.2530753  0.0247884  0.7466078

 Al 
  0.2619561  0.2610329  0.5102099

 Al 
  0.0147913  0.5028786  0.5023588

 Al 
  0.0150104  0.7726870  0.7434545

 Al 
  0.2626999  0.5158569  0.7622729

 Al 
  0.2675264  0.7554515  0.4890760

 Al 
  0.4972204  0.4990496  0.0136293

 Al 
  0.5055826  0.7440696  0.2439273

 Al 
  0.7387481  0.4979951  0.2594228

 Al 
  0.7603955  0.7305752  0.0009690

 Al 
  0.4854030  0.0070133  0.4940052

 Al 
  0.5098646  0.2461772  0.7424125

 Al 
  0.7491869  0.9944693  0.7422813

 Al 
  0.7377395  0.2246869  0.4721202

 Al 
  0.4919571  0.5004777  0.5059651

 Al 
  0.4877308  0.7792015  0.7663086

 Al 
  0.7277647  0.5081939  0.7552262

 Al 
  0.7376801  0.7520605  0.5012487

