32 
charge = 0 
 Al 
  0.9928890  0.9916291  0.0071246

 Al 
  0.0117729  0.2414831  0.2503663

 Al 
  0.2524207  0.0012153  0.2463665

 Al 
  0.2430659  0.2355205  0.9876677

 Al 
  0.5142988  0.9965150  0.9911378

 Al 
  0.4957613  0.2466017  0.2575838

 Al 
  0.7507920  0.9922133  0.2457440

 Al 
  0.7449829  0.2542572  0.0199470

 Al 
  0.0031644  0.4823041  0.9920610

 Al 
  0.0113967  0.7386157  0.2448852

 Al 
  0.2617111  0.5010309  0.2466078

 Al 
  0.2321717  0.7476783  0.0056829

 Al 
  0.0047980  0.0138149  0.5067373

 Al 
  0.9787189  0.2424546  0.7407591

 Al 
  0.2551681  0.0228986  0.7505136

 Al 
  0.2606765  0.2612086  0.5141948

 Al 
  0.0083474  0.4971685  0.5031880

 Al 
  0.0172479  0.7685399  0.7415017

 Al 
  0.2610898  0.5122779  0.7640785

 Al 
  0.2679929  0.7589129  0.4955831

 Al 
  0.4967093  0.5008985  0.0154893

 Al 
  0.5058215  0.7407579  0.2378880

 Al 
  0.7390092  0.5006336  0.2605985

 Al 
  0.7578152  0.7302052  0.0051730

 Al 
  0.4873793  0.0099166  0.4911985

 Al 
  0.5062460  0.2475657  0.7418469

 Al 
  0.7500334  0.9961202  0.7433110

 Al 
  0.7352384  0.2236350  0.4672392

 Al 
  0.4913296  0.4983837  0.5079872

 Al 
  0.4924595  0.7816804  0.7626293

 Al 
  0.7301569  0.5103176  0.7537511

 Al 
  0.7393359  0.7535493  0.5011559

