32 
charge = 0 
 Al 
  0.9919187  0.9912480  0.0064279

 Al 
  0.0126479  0.2428358  0.2504703

 Al 
  0.2515012  0.0009331  0.2481239

 Al 
  0.2416848  0.2357854  0.9873930

 Al 
  0.5120130  0.9984716  0.9930511

 Al 
  0.4949062  0.2475323  0.2569749

 Al 
  0.7493280  0.9898198  0.2452874

 Al 
  0.7449087  0.2519071  0.0227971

 Al 
  0.0049973  0.4802040  0.9901243

 Al 
  0.0119066  0.7398780  0.2444359

 Al 
  0.2626033  0.5010730  0.2473566

 Al 
  0.2340590  0.7462749  0.0053487

 Al 
  0.0080429  0.0125006  0.5085763

 Al 
  0.9766645  0.2454185  0.7389374

 Al 
  0.2543179  0.0240533  0.7487303

 Al 
  0.2615328  0.2611480  0.5125402

 Al 
  0.0114264  0.4996993  0.5028192

 Al 
  0.0162950  0.7706722  0.7424001

 Al 
  0.2619016  0.5139820  0.7633508

 Al 
  0.2679756  0.7574142  0.4925486

 Al 
  0.4969234  0.5001782  0.0148866

 Al 
  0.5057571  0.7420239  0.2405524

 Al 
  0.7386813  0.4994790  0.2600181

 Al 
  0.7590354  0.7302337  0.0032783

 Al 
  0.4863076  0.0087855  0.4924162

 Al 
  0.5077855  0.2468677  0.7418865

 Al 
  0.7496770  0.9952923  0.7427504

 Al 
  0.7361207  0.2238082  0.4691179

 Al 
  0.4914175  0.4992240  0.5071308

 Al 
  0.4902653  0.7809391  0.7645562

 Al 
  0.7288958  0.5094389  0.7545035

 Al 
  0.7385006  0.7528786  0.5012091

