32 
charge = 0 
 Al 
  0.9926365  0.9915091  0.0069613

 Al 
  0.0120068  0.2418185  0.2503911

 Al 
  0.2521868  0.0011472  0.2468244

 Al 
  0.2426947  0.2355589  0.9875662

 Al 
  0.5137320  0.9969816  0.9915759

 Al 
  0.4955658  0.2468380  0.2574736

 Al 
  0.7504183  0.9916242  0.2456388

 Al 
  0.7449644  0.2536694  0.0207069

 Al 
  0.0036409  0.4817521  0.9915561

 Al 
  0.0115539  0.7389362  0.2447317

 Al 
  0.2619722  0.5010519  0.2467861

 Al 
  0.2326122  0.7473034  0.0056062

 Al 
  0.0056210  0.0135068  0.5072509

 Al 
  0.9781867  0.2431872  0.7402678

 Al 
  0.2549676  0.0232377  0.7500619

 Al 
  0.2609363  0.2611975  0.5138001

 Al 
  0.0091530  0.4978033  0.5030951

 Al 
  0.0170177  0.7691166  0.7417318

 Al 
  0.2613088  0.5127209  0.7639053

 Al 
  0.2680177  0.7585441  0.4948035

 Al 
  0.4967601  0.5007351  0.0153755

 Al 
  0.5058141  0.7410400  0.2385476

 Al 
  0.7388941  0.5003490  0.2604450

 Al 
  0.7581308  0.7301903  0.0046965

 Al 
  0.4870823  0.0096604  0.4914979

 Al 
  0.5066185  0.2473788  0.7418234

 Al 
  0.7499455  0.9958987  0.7431563

 Al 
  0.7354203  0.2236288  0.4676588

 Al 
  0.4913222  0.4985793  0.5077806

 Al 
  0.4918952  0.7815541  0.7631590

 Al 
  0.7298104  0.5101072  0.7539540

 Al 
  0.7391119  0.7533785  0.5011720

