32 
charge = 0 
 Al 
  0.9945052  0.9926736  0.0079055

 Al 
  0.0101641  0.2395550  0.2501794

 Al 
  0.2539020  0.0015569  0.2434100

 Al 
  0.2456685  0.2357210  0.9887976

 Al 
  0.5176489  0.9940968  0.9891466

 Al 
  0.4966128  0.2451884  0.2575504

 Al 
  0.7531347  0.9955460  0.2461549

 Al 
  0.7450634  0.2577719  0.0147208

 Al 
  0.0000755  0.4859809  0.9954012

 Al 
  0.0100156  0.7366541  0.2464185

 Al 
  0.2595824  0.5007487  0.2457193

 Al 
  0.2300257  0.7502388  0.0060183

 Al 
  0.9997215  0.0153099  0.5029219

 Al 
  0.9821989  0.2382036  0.7442688

 Al 
  0.2561717  0.0200993  0.7532573

 Al 
  0.2584315  0.2611938  0.5162690

 Al 
  0.0029949  0.4932949  0.5037523

 Al 
  0.0184422  0.7645005  0.7400401

 Al 
  0.2595329  0.5093894  0.7650141

 Al 
  0.2674422  0.7610539  0.5005037

 Al 
  0.4964445  0.5015940  0.0155834

 Al 
  0.5057015  0.7396416  0.2340973

 Al 
  0.7401849  0.5022511  0.2616492

 Al 
  0.7558079  0.7306346  0.0080293

 Al 
  0.4895117  0.0110341  0.4894980

 Al 
  0.5042151  0.2488528  0.7424719

 Al 
  0.7506089  0.9976759  0.7444483

 Al 
  0.7347495  0.2244889  0.4655586

 Al 
  0.4917603  0.4974642  0.5090911

 Al 
  0.4960831  0.7815096  0.7587533

 Al 
  0.7327038  0.5114524  0.7523650

 Al 
  0.7408928  0.7546260  0.5010037

