32 
charge = 0 
 Al 
  0.9936785  0.9920821  0.0075590

 Al 
  0.0110106  0.2404955  0.2502834

 Al 
  0.2531459  0.0014022  0.2449297

 Al 
  0.2442886  0.2355230  0.9881182

 Al 
  0.5159868  0.9952193  0.9899980

 Al 
  0.4962613  0.2458888  0.2577249

 Al 
  0.7519430  0.9939285  0.2460039

 Al 
  0.7450299  0.2560207  0.0174744

 Al 
  0.0016670  0.4840676  0.9936674

 Al 
  0.0107990  0.7376392  0.2455163

 Al 
  0.2607680  0.5009245  0.2461215

 Al 
  0.2309861  0.7488949  0.0058797

 Al 
  0.0022821  0.0146466  0.5049812

 Al 
  0.9803970  0.2402938  0.7423927

 Al 
  0.2557138  0.0216635  0.7518836

 Al 
  0.2597000  0.2612210  0.5153000

 Al 
  0.0057819  0.4952453  0.5034677

 Al 
  0.0178902  0.7666403  0.7407876

 Al 
  0.2603658  0.5108794  0.7645673

 Al 
  0.2678048  0.7600007  0.4979989

 Al 
  0.4965670  0.5013106  0.0156675

 Al 
  0.5058017  0.7400698  0.2359450

 Al 
  0.7394919  0.5014665  0.2610985

 Al 
  0.7568313  0.7303438  0.0066086

 Al 
  0.4883731  0.0105700  0.4903235

 Al 
  0.5051817  0.2481746  0.7420548

 Al 
  0.7503094  0.9968516  0.7438369

 Al 
  0.7348597  0.2238775  0.4662059

 Al 
  0.4914621  0.4978677  0.5085726

 Al 
  0.4942193  0.7818016  0.7608423

 Al 
  0.7313301  0.5109128  0.7530939

 Al 
  0.7400698  0.7540741  0.5010928

