32 
charge = 0 
 Al 
  0.9966549  0.9947602  0.0083078

 Al 
  0.0076518  0.2375489  0.2496609

 Al 
  0.2559923  0.0017301  0.2393483

 Al 
  0.2499035  0.2372482  0.9916811

 Al 
  0.5217044  0.9921650  0.9884412

 Al 
  0.4967130  0.2436030  0.2554168

 Al 
  0.7562856  0.9990533  0.2457799

 Al 
  0.7450275  0.2620786  0.0064428

 Al 
  0.9956722  0.4915041  0.0003985

 Al 
  0.0071531  0.7342471  0.2500446

 Al 
  0.2554527  0.4999381  0.2451809

 Al 
  0.2287869  0.7541248  0.0060641

 Al 
  0.9931786  0.0159918  0.4964321

 Al 
  0.9874486  0.2333189  0.7502277

 Al 
  0.2569279  0.0145290  0.7566643

 Al 
  0.2538253  0.2608089  0.5179929

 Al 
  0.9948567  0.4881206  0.5045431

 Al 
  0.0191958  0.7580244  0.7380427

 Al 
  0.2568437  0.5051978  0.7659844

 Al 
  0.2657133  0.7635563  0.5070838

 Al 
  0.4962366  0.5016237  0.0140043

 Al 
  0.5049045  0.7399275  0.2301260

 Al 
  0.7428952  0.5039144  0.2632060

 Al 
  0.7531409  0.7321890  0.0113744

 Al 
  0.4929731  0.0112160  0.4877209

 Al 
  0.5022858  0.2508490  0.7445003

 Al 
  0.7516051  0.0002017  0.7463442

 Al 
  0.7357928  0.2280580  0.4660636

 Al 
  0.4932281  0.4970472  0.5100106

 Al 
  0.5013564  0.7786496  0.7520494

 Al 
  0.7371789  0.5125625  0.7502488

 Al 
  0.7434149  0.7562138  0.5006126

