32 
charge = 0 
 Al 
  0.9973355  0.9956240  0.0082434

 Al 
  0.0067187  0.2371021  0.2493404

 Al 
  0.2567435  0.0016856  0.2380229

 Al 
  0.2515494  0.2381442  0.9930548

 Al 
  0.5229432  0.9918828  0.9887407

 Al 
  0.4964531  0.2432033  0.2540666

 Al 
  0.7573214  0.9999604  0.2453171

 Al 
  0.7449606  0.2634040  0.0033006

 Al 
  0.9941302  0.4935436  0.0022326

 Al 
  0.0059168  0.7335577  0.2517227

 Al 
  0.2537201  0.4995372  0.2452032

 Al 
  0.2288550  0.7555047  0.0059638

 Al 
  0.9910908  0.0157764  0.4939446

 Al 
  0.9894498  0.2319044  0.7526075

 Al 
  0.2570417  0.0121368  0.7577249

 Al 
  0.2518390  0.2605205  0.5182627

 Al 
  0.9918197  0.4863163  0.5048525

 Al 
  0.0191203  0.7555554  0.7373855

 Al 
  0.2557274  0.5036867  0.7662455

 Al 
  0.2648619  0.7643062  0.5092335

 Al 
  0.4962131  0.5013749  0.0129721

 Al 
  0.5043847  0.7405425  0.2291817

 Al 
  0.7440882  0.5043042  0.2637258

 Al 
  0.7522944  0.7330244  0.0122977

 Al 
  0.4942800  0.0109017  0.4872840

 Al 
  0.5018526  0.2515767  0.7454916

 Al 
  0.7520482  0.0011744  0.7470620

 Al 
  0.7365947  0.2300344  0.4670994

 Al 
  0.4939310  0.4971511  0.5101332

 Al 
  0.5033031  0.7769108  0.7493899

 Al 
  0.7390129  0.5128298  0.7494889

 Al 
  0.7444000  0.7568202  0.5004096

