32 
charge = 0 
 Al 
  0.9975385  0.9959086  0.0081964

 Al 
  0.0064205  0.2369994  0.2492166

 Al 
  0.2569823  0.0016571  0.2376231

 Al 
  0.2520865  0.2384696  0.9935300

 Al 
  0.5233083  0.9918408  0.9888966

 Al 
  0.4963405  0.2430994  0.2535679

 Al 
  0.7576345  0.0002091  0.2451277

 Al 
  0.7449322  0.2637976  0.0022845

 Al 
  0.9936464  0.4941995  0.0028192

 Al 
  0.0055010  0.7333659  0.2523006

 Al 
  0.2531446  0.4993973  0.2452366

 Al 
  0.2289392  0.7559353  0.0059180

 Al 
  0.9904621  0.0156477  0.4931451

 Al 
  0.9901045  0.2314972  0.7533909

 Al 
  0.2570640  0.0113324  0.7580429

 Al 
  0.2511732  0.2604054  0.5183073

 Al 
  0.9908420  0.4857445  0.5049564

 Al 
  0.0190461  0.7547560  0.7371888

 Al 
  0.2553525  0.5032065  0.7663197

 Al 
  0.2645636  0.7645265  0.5098844

 Al 
  0.4962118  0.5012673  0.0125897

 Al 
  0.5041867  0.7407975  0.2289453

 Al 
  0.7444867  0.5044020  0.2638805

 Al 
  0.7520420  0.7333251  0.0125501

 Al 
  0.4947008  0.0107594  0.4871690

 Al 
  0.5017450  0.2518068  0.7458344

 Al 
  0.7522029  0.0014900  0.7472922

 Al 
  0.7368930  0.2307485  0.4675338

 Al 
  0.4941698  0.4972142  0.5101443

 Al 
  0.5039317  0.7762735  0.7485211

 Al 
  0.7396243  0.5129004  0.7492500

 Al 
  0.7447243  0.7570195  0.5003354

