32 
charge = 0 
 Al 
  0.9988466  0.9983875  0.0071717

 Al 
  0.0039194  0.2372568  0.2475496

 Al 
  0.2589612  0.0010470  0.2350428

 Al 
  0.2568289  0.2421056  0.9983540

 Al 
  0.5255557  0.9926019  0.9914658

 Al 
  0.4948728  0.2428593  0.2479320

 Al 
  0.7596691  0.0014653  0.2425486

 Al 
  0.7445485  0.2663259  0.9935969

 Al 
  0.9898569  0.4997983  0.0076704

 Al 
  0.0016311  0.7326184  0.2581159

 Al 
  0.2478912  0.4979753  0.2461945

 Al 
  0.2311235  0.7591122  0.0052535

 Al 
  0.9862494  0.0130390  0.4866294

 Al 
  0.9961054  0.2291941  0.7604129

 Al 
  0.2569898  0.0037535  0.7602557

 Al 
  0.2449161  0.2587632  0.5176390

 Al 
  0.9825528  0.4810331  0.5060009

 Al 
  0.0170276  0.7477872  0.7359957

 Al 
  0.2516645  0.4992030  0.7666539

 Al 
  0.2615069  0.7658309  0.5142728

 Al 
  0.4963838  0.4998515  0.0082187

 Al 
  0.5016373  0.7441736  0.2286397

 Al 
  0.7480273  0.5045555  0.2647047

 Al 
  0.7504777  0.7366826  0.0135142

 Al 
  0.4983503  0.0086766  0.4867964

 Al 
  0.5014591  0.2535951  0.7491659

 Al 
  0.7538179  0.0042288  0.7491609

 Al 
  0.7401985  0.2386553  0.4736696

 Al 
  0.4963950  0.4984469  0.5095107

 Al 
  0.5094463  0.7690201  0.7410054

 Al 
  0.7453765  0.5131169  0.7474407

 Al 
  0.7477142  0.7588424  0.4994221

