32 
charge = 0 
 Al 
  0.9989122  0.9985867  0.0070232

 Al 
  0.0037139  0.2374041  0.2473430

 Al 
  0.2591159  0.0009566  0.2349240

 Al 
  0.2572323  0.2424868  0.9988231

 Al 
  0.5256448  0.9927739  0.9917838

 Al 
  0.4947255  0.2429063  0.2473417

 Al 
  0.7597594  0.0014975  0.2422454

 Al 
  0.7445077  0.2664497  0.9928815

 Al 
  0.9895797  0.5002648  0.0080503

 Al 
  0.0012858  0.7326580  0.2586865

 Al 
  0.2474296  0.4978392  0.2463467

 Al 
  0.2314514  0.7593102  0.0051718

 Al 
  0.9860217  0.0126665  0.4861393

 Al 
  0.9966561  0.2291285  0.7610217

 Al 
  0.2569675  0.0030630  0.7603943

 Al 
  0.2443493  0.2585503  0.5174769

 Al 
  0.9818833  0.4806594  0.5061049

 Al 
  0.0167021  0.7471957  0.7359599

 Al 
  0.2513032  0.4988800  0.7666489

 Al 
  0.2612012  0.7658717  0.5145055

 Al 
  0.4964197  0.4997017  0.0077521

 Al 
  0.5013341  0.7445597  0.2287931

 Al 
  0.7483144  0.5045023  0.2647047

 Al 
  0.7504121  0.7370427  0.0134597

 Al 
  0.4986634  0.0084303  0.4868212

 Al 
  0.5014900  0.2537214  0.7494716

 Al 
  0.7539837  0.0044565  0.7493008

 Al 
  0.7405289  0.2394807  0.4744208

 Al 
  0.4965880  0.4986176  0.5093770

 Al 
  0.5099228  0.7682404  0.7403940

 Al 
  0.7459086  0.5130934  0.7473232

 Al 
  0.7479902  0.7590057  0.4993082

