32 
charge = 0 
 Al 
  0.9983516  0.9972501  0.0077979

 Al 
  0.0050567  0.2368422  0.2484766

 Al 
  0.2580714  0.0014207  0.2360094

 Al 
  0.2546161  0.2402319  0.9959569

 Al 
  0.5247488  0.9919794  0.9900030

 Al 
  0.4956425  0.2428060  0.2508453

 Al 
  0.7589104  0.0010841  0.2439644

 Al 
  0.7447552  0.2653730  0.9975830

 Al 
  0.9915103  0.4972229  0.0054886

 Al 
  0.0034788  0.7327249  0.2552275

 Al 
  0.2503762  0.4986808  0.2455831

 Al 
  0.2297572  0.7577954  0.0056260

 Al 
  0.9878929  0.0146181  0.4895191

 Al 
  0.9932318  0.2299527  0.7571123

 Al 
  0.2570739  0.0073994  0.7593547

 Al 
  0.2479197  0.2596938  0.5182045

 Al 
  0.9863336  0.4831592  0.5054787

 Al 
  0.0183209  0.7510222  0.7364041

 Al 
  0.2534875  0.5010185  0.7665759

 Al 
  0.2630377  0.7653829  0.5125650

 Al 
  0.4962564  0.5006052  0.0104921

 Al 
  0.5030296  0.7423432  0.2283476

 Al 
  0.7463913  0.5046520  0.2644696

 Al 
  0.7510433  0.7349413  0.0133842

 Al 
  0.4966561  0.0098312  0.4868224

 Al 
  0.5014430  0.2528229  0.7475496

 Al 
  0.7529986  0.0029640  0.7483330

 Al 
  0.7385191  0.2345862  0.4702527

 Al 
  0.4953406  0.4977117  0.5099908

 Al 
  0.5068709  0.7727947  0.7444557

 Al 
  0.7425994  0.5131144  0.7482043

 Al 
  0.7462786  0.7579749  0.4999220

