32 
charge = 0 
 Al 
  0.9984741  0.9974952  0.0076890

 Al 
  0.0048116  0.2368806  0.2483058

 Al 
  0.2582657  0.0013564  0.2357656

 Al 
  0.2550851  0.2406020  0.9964420

 Al 
  0.5249592  0.9920697  0.9902740

 Al 
  0.4954891  0.2427912  0.2502710

 Al 
  0.7591035  0.0011942  0.2436971

 Al 
  0.7447144  0.2656119  0.9967279

 Al 
  0.9911428  0.4977724  0.0059638

 Al 
  0.0030927  0.7326617  0.2558104

 Al 
  0.2498540  0.4985372  0.2456859

 Al 
  0.2299911  0.7581023  0.0055567

 Al 
  0.9874932  0.0143433  0.4888805

 Al 
  0.9938258  0.2297411  0.7578078

 Al 
  0.2570628  0.0066445  0.7595651

 Al 
  0.2472959  0.2595255  0.5181253

 Al 
  0.9855180  0.4826976  0.5055839

 Al 
  0.0181068  0.7503366  0.7362915

 Al 
  0.2531199  0.5006262  0.7666044

 Al 
  0.2627308  0.7655042  0.5129833

 Al 
  0.4962749  0.5004567  0.0100478

 Al 
  0.5027684  0.7426922  0.2283389

 Al 
  0.7467440  0.5046582  0.2645463

 Al 
  0.7508972  0.7352817  0.0134647

 Al 
  0.4970138  0.0096134  0.4867952

 Al 
  0.5014244  0.2529974  0.7478838

 Al 
  0.7531607  0.0032350  0.7485149

 Al 
  0.7388570  0.2353893  0.4708876

 Al 
  0.4955633  0.4978417  0.5099203

 Al 
  0.5074142  0.7720583  0.7437132

 Al 
  0.7431724  0.5131305  0.7480273

 Al 
  0.7465744  0.7581555  0.4998305

