32 
charge = 0 
 Al 
  0.9986832  0.9979593  0.0074464

 Al 
  0.0043488  0.2370254  0.2479419

 Al 
  0.2586295  0.0012116  0.2353534

 Al 
  0.2559824  0.2413494  0.9974036

 Al 
  0.5253057  0.9923024  0.9908507

 Al 
  0.4951785  0.2427999  0.2491077

 Al 
  0.7594278  0.0013601  0.2431377

 Al 
  0.7446327  0.2660141  0.9951054

 Al 
  0.9904633  0.4988181  0.0068561

 Al 
  0.0023452  0.7325986  0.2569687

 Al 
  0.2488478  0.4982538  0.2459198

 Al 
  0.2305195  0.7586518  0.0054094

 Al 
  0.9868026  0.0137295  0.4876949

 Al 
  0.9949829  0.2294094  0.7591443

 Al 
  0.2570294  0.0051730  0.7599376

 Al 
  0.2460831  0.2591617  0.5179150

 Al 
  0.9839773  0.4818301  0.5057918

 Al 
  0.0176118  0.7490236  0.7361121

 Al 
  0.2523897  0.4998874  0.7666427

 Al 
  0.2621170  0.7656997  0.5137023

 Al 
  0.4963232  0.5001547  0.0091419

 Al 
  0.5022202  0.7434186  0.2284243

 Al 
  0.7474110  0.5046310  0.2646552

 Al 
  0.7506547  0.7359735  0.0135426

 Al 
  0.4977006  0.0091567  0.4867742

 Al 
  0.5014220  0.2533154  0.7485372

 Al 
  0.7534875  0.0037486  0.7488553

 Al 
  0.7395315  0.2370130  0.4722328

 Al 
  0.4959915  0.4981288  0.5097396

 Al 
  0.5084563  0.7705559  0.7423061

 Al 
  0.7442911  0.5131392  0.7477105

 Al 
  0.7471524  0.7585070  0.4996337

