32 
charge = 0 
 Al 
  0.9987699  0.9981783  0.0073128

 Al 
  0.0041297  0.2371306  0.2477501

 Al 
  0.2587991  0.0011311  0.2351864

 Al 
  0.2564118  0.2417269  0.9978801

 Al 
  0.5254418  0.9924434  0.9911539

 Al 
  0.4950250  0.2428234  0.2485211

 Al 
  0.7595589  0.0014195  0.2428457

 Al 
  0.7445906  0.2661811  0.9943382

 Al 
  0.9901515  0.4993156  0.0072732

 Al 
  0.0019838  0.7325974  0.2575442

 Al 
  0.2483627  0.4981140  0.2460522

 Al 
  0.2308116  0.7588931  0.0053327

 Al 
  0.9865093  0.0133941  0.4871467

 Al 
  0.9955485  0.2292869  0.7597866

 Al 
  0.2570108  0.0044565  0.7601035

 Al 
  0.2454940  0.2589674  0.5177850

 Al 
  0.9832508  0.4814229  0.5058970

 Al 
  0.0173296  0.7483961  0.7360452

 Al 
  0.2520271  0.4995384  0.7666514

 Al 
  0.2618113  0.7657727  0.5140067

 Al 
  0.4963517  0.5000037  0.0086827

 Al 
  0.5019331  0.7437924  0.2285159

 Al 
  0.7477266  0.5045988  0.2646874

 Al 
  0.7505581  0.7363262  0.0135414

 Al 
  0.4980286  0.0089191  0.4867804

 Al 
  0.5014356  0.2534602  0.7488540

 Al 
  0.7536520  0.0039924  0.7490124

 Al 
  0.7398656  0.2378323  0.4729395

 Al 
  0.4961957  0.4982847  0.5096307

 Al 
  0.5089575  0.7697911  0.7416427

 Al 
  0.7448369  0.5131318  0.7475694

 Al 
  0.7474358  0.7586766  0.4995297

