32 
charge = 0 
 Al 
  0.9990161  0.9989592  0.0067051

 Al 
  0.0033241  0.2377605  0.2469086

 Al 
  0.2594018  0.0007648  0.2347557

 Al 
  0.2580058  0.2432528  0.9997537

 Al 
  0.5257562  0.9931612  0.9924373

 Al 
  0.4944433  0.2430362  0.2461598

 Al 
  0.7598795  0.0015284  0.2416229

 Al 
  0.7444285  0.2666378  0.9915252

 Al 
  0.9890711  0.5011559  0.0087570

 Al 
  0.0006200  0.7327991  0.2598213

 Al 
  0.2465410  0.4975707  0.2466796

 Al 
  0.2321605  0.7596431  0.0050010

 Al 
  0.9856579  0.0118657  0.4852445

 Al 
  0.9977427  0.2290815  0.7621937

 Al 
  0.2569229  0.0017153  0.7606406

 Al 
  0.2432441  0.2580961  0.5171056

 Al 
  0.9806247  0.4799589  0.5063128

 Al 
  0.0159844  0.7460571  0.7359376

 Al 
  0.2505779  0.4982674  0.7666205

 Al 
  0.2605911  0.7659076  0.5148656

 Al 
  0.4965014  0.4994097  0.0068066

 Al 
  0.5007017  0.7453455  0.2291904

 Al 
  0.7488478  0.5043624  0.2646577

 Al 
  0.7503255  0.7377791  0.0132766

 Al 
  0.4992711  0.0079254  0.4868992

 Al 
  0.5015729  0.2539478  0.7500631

 Al 
  0.7543179  0.0048871  0.7495594

 Al 
  0.7411774  0.2411415  0.4759863

 Al 
  0.4969568  0.4989765  0.5090726

 Al 
  0.5108435  0.7666564  0.7392481

 Al 
  0.7469556  0.5130241  0.7471239

 Al 
  0.7485335  0.7593226  0.4990656

